MODEL 1
REMARK minimizedAffinity -3.47923923
REMARK minimizedRMSD -1
REMARK  Name = *****
REMARK  4 active torsions:
REMARK  status: ('A' for Active; 'I' for Inactive)
REMARK    1  A    between atoms: N_11  and  C_14
REMARK    2  A    between atoms: C_12  and  C_15
REMARK    3  A    between atoms: C_16  and  C_17
REMARK    4  A    between atoms: C_17  and  O_21
REMARK                            x       y       z     vdW  Elec       q    Type
REMARK                         _______ _______ _______ _____ _____    ______ ____
ROOT
ATOM      1  C   UNL A   1      72.347  70.544  51.369  0.00  0.00    +0.027 A 
ATOM      2  C   UNL A   1      70.981  70.598  51.650  0.00  0.00    +0.012 A 
ATOM      3  C   UNL A   1      70.092  70.657  50.561  0.00  0.00    +0.001 A 
ATOM      4  C   UNL A   1      70.582  70.662  49.236  0.00  0.00    +0.002 A 
ATOM      5  C   UNL A   1      71.966  70.606  48.984  0.00  0.00    +0.028 A 
ATOM      6  C   UNL A   1      72.825  70.548  50.087  0.00  0.00    +0.069 A 
ATOM      7  N   UNL A   1      74.173  70.489  50.125  0.00  0.00    -0.266 N 
ATOM      8  C   UNL A   1      73.461  70.480  52.182  0.00  0.00    +0.093 A 
ATOM      9  N   UNL A   1      74.564  70.448  51.394  0.00  0.00    -0.171 NA
ATOM     10  C   UNL A   1      75.111  70.470  49.006  0.00  0.00    +0.173 C 
ENDROOT
BRANCH   8  11
ATOM     11  C   UNL A   1      73.475  70.451  53.658  0.00  0.00    +0.037 C 
ATOM     12  C   UNL A   1      72.461  70.947  54.384  0.00  0.00    +0.093 C 
BRANCH  12  13
ATOM     13  C   UNL A   1      72.459  70.926  55.864  0.00  0.00    +0.330 C 
ATOM     14  O   UNL A   1      73.498  70.768  56.490  0.00  0.00    -0.246 OA
BRANCH  13  15
ATOM     15  O   UNL A   1      71.293  71.084  56.523  0.00  0.00    -0.477 OA
ATOM     16  H   UNL A   1      71.254  71.075  57.490  0.00  0.00    +0.295 HD
ENDBRANCH  13  15
ENDBRANCH  12  13
ENDBRANCH   8  11
TORSDOF 3
ENDMDL
MODEL 2
REMARK minimizedAffinity -3.19266152
REMARK minimizedRMSD -1
REMARK  Name = *****
REMARK  4 active torsions:
REMARK  status: ('A' for Active; 'I' for Inactive)
REMARK    1  A    between atoms: N_11  and  C_14
REMARK    2  A    between atoms: C_12  and  C_15
REMARK    3  A    between atoms: C_16  and  C_17
REMARK    4  A    between atoms: C_17  and  O_21
REMARK                            x       y       z     vdW  Elec       q    Type
REMARK                         _______ _______ _______ _____ _____    ______ ____
ROOT
ATOM      1  C   UNL A   1      72.836  70.642  51.385  0.00  0.00    +0.027 A 
ATOM      2  C   UNL A   1      74.156  70.527  50.947  0.00  0.00    +0.012 A 
ATOM      3  C   UNL A   1      74.378  70.418  49.562  0.00  0.00    +0.001 A 
ATOM      4  C   UNL A   1      73.291  70.426  48.660  0.00  0.00    +0.002 A 
ATOM      5  C   UNL A   1      71.970  70.544  49.131  0.00  0.00    +0.028 A 
ATOM      6  C   UNL A   1      71.780  70.650  50.513  0.00  0.00    +0.069 A 
ATOM      7  N   UNL A   1      70.635  70.772  51.218  0.00  0.00    -0.266 N 
ATOM      8  C   UNL A   1      72.281  70.764  52.642  0.00  0.00    +0.093 A 
ATOM      9  N   UNL A   1      70.934  70.842  52.510  0.00  0.00    -0.171 NA
ATOM     10  C   UNL A   1      69.265  70.826  50.717  0.00  0.00    +0.173 C 
ENDROOT
BRANCH   8  11
ATOM     11  C   UNL A   1      73.008  70.806  53.927  0.00  0.00    +0.037 C 
ATOM     12  C   UNL A   1      72.388  70.582  55.097  0.00  0.00    +0.093 C 
BRANCH  12  13
ATOM     13  C   UNL A   1      73.101  70.621  56.393  0.00  0.00    +0.330 C 
ATOM     14  O   UNL A   1      74.310  70.797  56.439  0.00  0.00    -0.246 OA
BRANCH  13  15
ATOM     15  O   UNL A   1      72.401  70.457  57.534  0.00  0.00    -0.477 OA
ATOM     16  H   UNL A   1      72.834  70.475  58.400  0.00  0.00    +0.295 HD
ENDBRANCH  13  15
ENDBRANCH  12  13
ENDBRANCH   8  11
TORSDOF 3
ENDMDL
MODEL 3
REMARK minimizedAffinity -0.943993151
REMARK minimizedRMSD -1
REMARK  Name = *****
REMARK  4 active torsions:
REMARK  status: ('A' for Active; 'I' for Inactive)
REMARK    1  A    between atoms: N_11  and  C_14
REMARK    2  A    between atoms: C_12  and  C_15
REMARK    3  A    between atoms: C_16  and  C_17
REMARK    4  A    between atoms: C_17  and  O_21
REMARK                            x       y       z     vdW  Elec       q    Type
REMARK                         _______ _______ _______ _____ _____    ______ ____
ROOT
ATOM      1  C   UNL A   1      72.783  70.490  51.777  0.00  0.00    +0.027 A 
ATOM      2  C   UNL A   1      74.145  70.460  52.079  0.00  0.00    +0.012 A 
ATOM      3  C   UNL A   1      75.052  70.431  51.004  0.00  0.00    +0.001 A 
ATOM      4  C   UNL A   1      74.584  70.431  49.672  0.00  0.00    +0.002 A 
ATOM      5  C   UNL A   1      73.204  70.462  49.398  0.00  0.00    +0.028 A 
ATOM      6  C   UNL A   1      72.325  70.491  50.487  0.00  0.00    +0.069 A 
ATOM      7  N   UNL A   1      70.976  70.522  50.504  0.00  0.00    -0.266 N 
ATOM      8  C   UNL A   1      71.655  70.523  52.572  0.00  0.00    +0.093 A 
ATOM      9  N   UNL A   1      70.564  70.542  51.767  0.00  0.00    -0.171 NA
ATOM     10  C   UNL A   1      70.056  70.535  49.371  0.00  0.00    +0.173 C 
ENDROOT
BRANCH   8  11
ATOM     11  C   UNL A   1      71.616  70.535  54.048  0.00  0.00    +0.037 C 
ATOM     12  C   UNL A   1      72.714  70.784  54.782  0.00  0.00    +0.093 C 
BRANCH  12  13
ATOM     13  C   UNL A   1      72.692  70.800  56.261  0.00  0.00    +0.330 C 
ATOM     14  O   UNL A   1      73.685  70.493  56.907  0.00  0.00    -0.246 OA
BRANCH  13  15
ATOM     15  O   UNL A   1      71.559  71.160  56.899  0.00  0.00    -0.477 OA
ATOM     16  H   UNL A   1      71.508  71.181  57.866  0.00  0.00    +0.295 HD
ENDBRANCH  13  15
ENDBRANCH  12  13
ENDBRANCH   8  11
TORSDOF 3
ENDMDL
