MODEL 1
REMARK minimizedAffinity -2.98883629
REMARK minimizedRMSD -1
REMARK  Name = *****
REMARK  3 active torsions:
REMARK  status: ('A' for Active; 'I' for Inactive)
REMARK    1  A    between atoms: C_10  and  C_12
REMARK    2  A    between atoms: C_13  and  C_14
REMARK    3  A    between atoms: C_14  and  O_18
REMARK                            x       y       z     vdW  Elec       q    Type
REMARK                         _______ _______ _______ _____ _____    ______ ____
ROOT
ATOM      1  C   UNL A   1      72.750  70.563  51.259  0.00  0.00    +0.022 A 
ATOM      2  C   UNL A   1      71.376  70.648  51.479  0.00  0.00    -0.009 A 
ATOM      3  C   UNL A   1      70.534  70.659  50.349  0.00  0.00    -0.139 A 
ATOM      4  C   UNL A   1      71.083  70.585  49.047  0.00  0.00    -0.512 A 
ATOM      5  C   UNL A   1      72.476  70.500  48.862  0.00  0.00    -0.169 A 
ATOM      6  C   UNL A   1      73.277  70.492  50.001  0.00  0.00    +0.034 A 
ATOM      7  N   UNL A   1      74.615  70.418  50.081  0.00  0.00    -0.279 N 
ATOM      8  C   UNL A   1      73.837  70.529  52.111  0.00  0.00    +0.093 A 
ATOM      9  N   UNL A   1      74.965  70.440  51.362  0.00  0.00    -0.173 NA
ATOM     10 BR   UNL A   1      68.642  70.773  50.578  0.00  0.00    -0.089 Br
ATOM     11  H   UNL A   1      75.288  70.353  49.285  0.00  0.00    +0.189 HD
ENDROOT
BRANCH   8  12
ATOM     12  C   UNL A   1      73.801  70.580  53.585  0.00  0.00    +0.037 C 
ATOM     13  C   UNL A   1      72.666  70.830  54.259  0.00  0.00    +0.093 C 
BRANCH  13  14
ATOM     14  C   UNL A   1      72.615  70.884  55.735  0.00  0.00    +0.330 C 
ATOM     15  O   UNL A   1      71.549  71.011  56.323  0.00  0.00    -0.246 OA
BRANCH  14  16
ATOM     16  O   UNL A   1      73.762  70.790  56.439  0.00  0.00    -0.477 OA
ATOM     17  H   UNL A   1      73.767  70.823  57.406  0.00  0.00    +0.295 HD
ENDBRANCH  14  16
ENDBRANCH  13  14
ENDBRANCH   8  12
TORSDOF 3
ENDMDL
MODEL 2
REMARK minimizedAffinity -0.689136684
REMARK minimizedRMSD -1
REMARK  Name = *****
REMARK  3 active torsions:
REMARK  status: ('A' for Active; 'I' for Inactive)
REMARK    1  A    between atoms: C_10  and  C_12
REMARK    2  A    between atoms: C_13  and  C_14
REMARK    3  A    between atoms: C_14  and  O_18
REMARK                            x       y       z     vdW  Elec       q    Type
REMARK                         _______ _______ _______ _____ _____    ______ ____
ROOT
ATOM      1  C   UNL A   1      72.580  70.653  51.501  0.00  0.00    +0.022 A 
ATOM      2  C   UNL A   1      73.886  70.581  51.020  0.00  0.00    -0.009 A 
ATOM      3  C   UNL A   1      74.065  70.520  49.624  0.00  0.00    -0.139 A 
ATOM      4  C   UNL A   1      72.946  70.533  48.758  0.00  0.00    -0.512 A 
ATOM      5  C   UNL A   1      71.641  70.608  49.278  0.00  0.00    -0.169 A 
ATOM      6  C   UNL A   1      71.502  70.666  50.663  0.00  0.00    +0.034 A 
ATOM      7  N   UNL A   1      70.373  70.741  51.387  0.00  0.00    -0.279 N 
ATOM      8  C   UNL A   1      72.051  70.724  52.775  0.00  0.00    +0.093 A 
ATOM      9  N   UNL A   1      70.699  70.777  52.674  0.00  0.00    -0.173 NA
ATOM     10 BR   UNL A   1      75.828  70.419  48.897  0.00  0.00    -0.089 Br
ATOM     11  H   UNL A   1      69.396  70.768  51.023  0.00  0.00    +0.189 HD
ENDROOT
BRANCH   8  12
ATOM     12  C   UNL A   1      72.807  70.741  54.042  0.00  0.00    +0.037 C 
ATOM     13  C   UNL A   1      72.196  70.624  55.233  0.00  0.00    +0.093 C 
BRANCH  13  14
ATOM     14  C   UNL A   1      72.939  70.639  56.511  0.00  0.00    +0.330 C 
ATOM     15  O   UNL A   1      72.351  70.561  57.581  0.00  0.00    -0.246 OA
BRANCH  14  16
ATOM     16  O   UNL A   1      74.284  70.739  56.491  0.00  0.00    -0.477 OA
ATOM     17  H   UNL A   1      74.803  70.753  57.307  0.00  0.00    +0.295 HD
ENDBRANCH  14  16
ENDBRANCH  13  14
ENDBRANCH   8  12
TORSDOF 3
ENDMDL
MODEL 3
REMARK minimizedAffinity -0.422850192
REMARK minimizedRMSD -1
REMARK  Name = *****
REMARK  3 active torsions:
REMARK  status: ('A' for Active; 'I' for Inactive)
REMARK    1  A    between atoms: C_10  and  C_12
REMARK    2  A    between atoms: C_13  and  C_14
REMARK    3  A    between atoms: C_14  and  O_18
REMARK                            x       y       z     vdW  Elec       q    Type
REMARK                         _______ _______ _______ _____ _____    ______ ____
ROOT
ATOM      1  C   UNL A   1      73.249  70.628  51.694  0.00  0.00    +0.022 A 
ATOM      2  C   UNL A   1      72.500  70.766  52.861  0.00  0.00    -0.009 A 
ATOM      3  C   UNL A   1      73.199  70.818  54.083  0.00  0.00    -0.139 A 
ATOM      4  C   UNL A   1      74.611  70.732  54.104  0.00  0.00    -0.512 A 
ATOM      5  C   UNL A   1      75.336  70.593  52.906  0.00  0.00    -0.169 A 
ATOM      6  C   UNL A   1      74.612  70.545  51.717  0.00  0.00    +0.034 A 
ATOM      7  N   UNL A   1      75.074  70.419  50.462  0.00  0.00    -0.279 N 
ATOM      8  C   UNL A   1      72.902  70.545  50.360  0.00  0.00    +0.093 A 
ATOM      9  N   UNL A   1      74.039  70.418  49.630  0.00  0.00    -0.173 NA
ATOM     10 BR   UNL A   1      72.234  71.006  55.721  0.00  0.00    -0.089 Br
ATOM     11  H   UNL A   1      76.071  70.334  50.167  0.00  0.00    +0.189 HD
ENDROOT
BRANCH   8  12
ATOM     12  C   UNL A   1      71.537  70.585  49.801  0.00  0.00    +0.037 C 
ATOM     13  C   UNL A   1      70.460  70.795  50.577  0.00  0.00    +0.093 C 
BRANCH  13  14
ATOM     14  C   UNL A   1      69.086  70.838  50.032  0.00  0.00    +0.330 C 
ATOM     15  O   UNL A   1      68.114  70.812  50.774  0.00  0.00    -0.246 OA
BRANCH  14  16
ATOM     16  O   UNL A   1      68.909  70.909  48.697  0.00  0.00    -0.477 OA
ATOM     17  H   UNL A   1      68.025  70.938  48.304  0.00  0.00    +0.295 HD
ENDBRANCH  14  16
ENDBRANCH  13  14
ENDBRANCH   8  12
TORSDOF 3
ENDMDL
