MODEL 1
REMARK minimizedAffinity -4.71535635
REMARK minimizedRMSD -1
REMARK  Name = *****
REMARK  3 active torsions:
REMARK  status: ('A' for Active; 'I' for Inactive)
REMARK    1  A    between atoms: C_12  and  C_15
REMARK    2  A    between atoms: C_16  and  C_17
REMARK    3  A    between atoms: C_17  and  O_21
REMARK                            x       y       z     vdW  Elec       q    Type
REMARK                         _______ _______ _______ _____ _____    ______ ____
ROOT
ATOM      1  C   UNL A   1      72.377  70.530  51.356  0.00  0.00    +0.027 A 
ATOM      2  C   UNL A   1      71.016  70.599  51.650  0.00  0.00    +0.012 A 
ATOM      3  C   UNL A   1      70.117  70.643  50.567  0.00  0.00    +0.001 A 
ATOM      4  C   UNL A   1      70.594  70.617  49.236  0.00  0.00    +0.002 A 
ATOM      5  C   UNL A   1      71.976  70.547  48.974  0.00  0.00    +0.028 A 
ATOM      6  C   UNL A   1      72.837  70.505  50.069  0.00  0.00    +0.066 A 
ATOM      7  N   UNL A   1      74.178  70.438  50.075  0.00  0.00    -0.276 N 
ATOM      8  C   UNL A   1      73.507  70.474  52.147  0.00  0.00    +0.093 A 
ATOM      9  N   UNL A   1      74.594  70.418  51.337  0.00  0.00    -0.173 NA
ATOM     10  H   UNL A   1      74.807  70.406  49.242  0.00  0.00    +0.189 HD
ENDROOT
BRANCH   8  11
ATOM     11  C   UNL A   1      73.551  70.473  53.623  0.00  0.00    +0.037 C 
ATOM     12  C   UNL A   1      72.507  70.879  54.362  0.00  0.00    +0.093 C 
BRANCH  12  13
ATOM     13  C   UNL A   1      72.536  70.885  55.841  0.00  0.00    +0.330 C 
ATOM     14  O   UNL A   1      71.506  71.013  56.488  0.00  0.00    -0.246 OA
BRANCH  13  15
ATOM     15  O   UNL A   1      73.716  70.746  56.478  0.00  0.00    -0.477 OA
ATOM     16  H   UNL A   1      73.772  70.744  57.444  0.00  0.00    +0.295 HD
ENDBRANCH  13  15
ENDBRANCH  12  13
ENDBRANCH   8  11
TORSDOF 3
ENDMDL
