MODEL 1
REMARK minimizedAffinity -0.154295951
REMARK minimizedRMSD -1
REMARK  Name = *****
REMARK  5 active torsions:
REMARK  status: ('A' for Active; 'I' for Inactive)
REMARK    1  A    between atoms: C_4  and  O_20
REMARK    2  A    between atoms: C_9  and  C_11
REMARK    3  A    between atoms: C_12  and  C_13
REMARK    4  A    between atoms: C_13  and  O_17
REMARK    5  A    between atoms: O_20  and  C_22
REMARK                            x       y       z     vdW  Elec       q    Type
REMARK                         _______ _______ _______ _____ _____    ______ ____
ROOT
ATOM      1  C   UNL A   1      72.598  70.561  52.023  0.00  0.00    +0.027 A 
ATOM      2  C   UNL A   1      71.257  70.590  52.399  0.00  0.00    +0.016 A 
ATOM      3  C   UNL A   1      70.292  70.581  51.376  0.00  0.00    +0.046 A 
ATOM      4  C   UNL A   1      70.673  70.545  50.012  0.00  0.00    +0.122 A 
ATOM      5  C   UNL A   1      72.051  70.516  49.673  0.00  0.00    +0.073 A 
ATOM      6  C   UNL A   1      72.977  70.526  50.713  0.00  0.00    +0.070 A 
ATOM      7  N   UNL A   1      74.318  70.503  50.637  0.00  0.00    -0.276 N 
ATOM      8  C   UNL A   1      73.774  70.559  52.745  0.00  0.00    +0.093 A 
ATOM      9  N   UNL A   1      74.812  70.523  51.870  0.00  0.00    -0.173 NA
ATOM     10  H   UNL A   1      74.895  70.475  49.767  0.00  0.00    +0.189 HD
ENDROOT
BRANCH   8  11
ATOM     11  C   UNL A   1      73.908  70.591  54.214  0.00  0.00    +0.037 C 
ATOM     12  C   UNL A   1      72.837  70.592  55.023  0.00  0.00    +0.093 C 
BRANCH  12  13
ATOM     13  C   UNL A   1      72.955  70.625  56.497  0.00  0.00    +0.330 C 
ATOM     14  O   UNL A   1      71.972  70.809  57.201  0.00  0.00    -0.246 OA
BRANCH  13  15
ATOM     15  O   UNL A   1      74.166  70.447  57.065  0.00  0.00    -0.477 OA
ATOM     16  H   UNL A   1      74.281  70.463  58.026  0.00  0.00    +0.295 HD
ENDBRANCH  13  15
ENDBRANCH  12  13
ENDBRANCH   8  11
BRANCH   4  17
ATOM     17  O   UNL A   1      69.693  70.538  49.073  0.00  0.00    -0.495 OA
ATOM     18  C   UNL A   1      69.406  71.568  48.202  0.00  0.00    +0.277 C 
ENDBRANCH   4  17
TORSDOF 4
ENDMDL
MODEL 2
REMARK minimizedAffinity 1.2651999
REMARK minimizedRMSD -1
REMARK  Name = *****
REMARK  5 active torsions:
REMARK  status: ('A' for Active; 'I' for Inactive)
REMARK    1  A    between atoms: C_4  and  O_20
REMARK    2  A    between atoms: C_9  and  C_11
REMARK    3  A    between atoms: C_12  and  C_13
REMARK    4  A    between atoms: C_13  and  O_17
REMARK    5  A    between atoms: O_20  and  C_22
REMARK                            x       y       z     vdW  Elec       q    Type
REMARK                         _______ _______ _______ _____ _____    ______ ____
ROOT
ATOM      1  C   UNL A   1      72.662  70.696  52.009  0.00  0.00    +0.027 A 
ATOM      2  C   UNL A   1      74.029  70.508  52.201  0.00  0.00    +0.016 A 
ATOM      3  C   UNL A   1      74.842  70.418  51.057  0.00  0.00    +0.046 A 
ATOM      4  C   UNL A   1      74.288  70.515  49.758  0.00  0.00    +0.122 A 
ATOM      5  C   UNL A   1      72.889  70.706  49.607  0.00  0.00    +0.073 A 
ATOM      6  C   UNL A   1      72.116  70.791  50.762  0.00  0.00    +0.070 A 
ATOM      7  N   UNL A   1      70.790  70.969  50.868  0.00  0.00    -0.276 N 
ATOM      8  C   UNL A   1      71.601  70.825  52.884  0.00  0.00    +0.093 A 
ATOM      9  N   UNL A   1      70.467  70.991  52.157  0.00  0.00    -0.173 NA
ATOM     10  H   UNL A   1      70.108  71.074  50.084  0.00  0.00    +0.189 HD
ENDROOT
BRANCH   8  11
ATOM     11  C   UNL A   1      71.663  70.791  54.358  0.00  0.00    +0.037 C 
ATOM     12  C   UNL A   1      72.829  70.676  55.015  0.00  0.00    +0.093 C 
BRANCH  12  13
ATOM     13  C   UNL A   1      72.907  70.640  56.492  0.00  0.00    +0.330 C 
ATOM     14  O   UNL A   1      71.909  70.808  57.177  0.00  0.00    -0.246 OA
BRANCH  13  15
ATOM     15  O   UNL A   1      74.099  70.418  57.083  0.00  0.00    -0.477 OA
ATOM     16  H   UNL A   1      74.189  70.388  58.045  0.00  0.00    +0.295 HD
ENDBRANCH  13  15
ENDBRANCH  12  13
ENDBRANCH   8  11
BRANCH   4  17
ATOM     17  O   UNL A   1      75.127  70.419  48.694  0.00  0.00    -0.495 OA
ATOM     18  C   UNL A   1      76.263  71.174  48.496  0.00  0.00    +0.277 C 
ENDBRANCH   4  17
TORSDOF 4
ENDMDL
