MODEL 1
REMARK minimizedAffinity -1.59551096
REMARK minimizedRMSD -1
REMARK  Name = *****
REMARK  4 active torsions:
REMARK  status: ('A' for Active; 'I' for Inactive)
REMARK    1  A    between atoms: C_10  and  C_12
REMARK    2  A    between atoms: C_13  and  C_14
REMARK    3  A    between atoms: C_14  and  O_18
REMARK    4  A    between atoms: N_20  and  O_23
REMARK                            x       y       z     vdW  Elec       q    Type
REMARK                         _______ _______ _______ _____ _____    ______ ____
ROOT
ATOM      1  C   UNL A   1      73.182  70.477  51.732  0.00  0.00    +0.009 A 
ATOM      2  C   UNL A   1      71.840  70.505  51.719  0.00  0.00    +0.051 C 
ATOM      3  C   UNL A   1      71.071  70.500  50.441  0.00  0.00    -0.063 C 
ATOM      4  C   UNL A   1      71.860  70.466  49.347  0.00  0.00    -0.501 C 
ATOM      5  C   UNL A   1      73.353  70.435  49.388  0.00  0.00    -0.169 C 
ATOM      6  C   UNL A   1      73.919  70.443  50.591  0.00  0.00    +0.031 A 
ATOM      7  N   UNL A   1      75.226  70.420  50.897  0.00  0.00    -0.279 N 
ATOM      8  C   UNL A   1      74.105  70.473  52.761  0.00  0.00    +0.090 A 
ATOM      9  N   UNL A   1      75.348  70.439  52.219  0.00  0.00    -0.174 NA
ATOM     10  N   UNL A   1      69.815  70.528  50.572  0.00  0.00    -0.081 NA
ATOM     11  H   UNL A   1      76.027  70.393  50.228  0.00  0.00    +0.189 HD
ENDROOT
BRANCH   8  12
ATOM     12  C   UNL A   1      73.818  70.503  54.211  0.00  0.00    +0.037 C 
ATOM     13  C   UNL A   1      72.615  70.865  54.687  0.00  0.00    +0.093 C 
BRANCH  13  14
ATOM     14  C   UNL A   1      72.314  70.900  56.133  0.00  0.00    +0.330 C 
ATOM     15  O   UNL A   1      71.219  71.263  56.539  0.00  0.00    -0.246 OA
BRANCH  14  16
ATOM     16  O   UNL A   1      73.265  70.525  57.014  0.00  0.00    -0.477 OA
ATOM     17  H   UNL A   1      73.103  70.535  57.967  0.00  0.00    +0.295 HD
ENDBRANCH  14  16
ENDBRANCH  13  14
ENDBRANCH   8  12
BRANCH  10  18
ATOM     18  O   UNL A   1      69.020  70.528  49.521  0.00  0.00    -0.187 OA
ATOM     19  O   UNL A   1      69.226  71.244  48.644  0.00  0.00    +0.053 OA
ENDBRANCH  10  18
TORSDOF 4
ENDMDL
