MODEL 1
REMARK minimizedAffinity -4.00804281
REMARK minimizedRMSD -1
REMARK  Name = *****
REMARK  4 active torsions:
REMARK  status: ('A' for Active; 'I' for Inactive)
REMARK    1  A    between atoms: C_2  and  C_7
REMARK    2  A    between atoms: C_9  and  C_11
REMARK    3  A    between atoms: C_12  and  C_13
REMARK    4  A    between atoms: C_13  and  O_17
REMARK                            x       y       z     vdW  Elec       q    Type
REMARK                         _______ _______ _______ _____ _____    ______ ____
ROOT
ATOM      1  C   UNL A   1      72.735  70.658  51.274  0.00  0.00    +0.024 A 
ATOM      2  C   UNL A   1      71.451  70.661  50.657  0.00  0.00    -0.072 A 
ATOM      3  C   UNL A   1      71.406  70.560  49.247  0.00  0.00    -0.194 A 
ATOM      4  C   UNL A   1      72.578  70.460  48.480  0.00  0.00    -0.527 A 
ATOM      5  C   UNL A   1      73.829  70.459  49.102  0.00  0.00    -0.170 A 
ATOM      6  C   UNL A   1      73.867  70.558  50.487  0.00  0.00    +0.034 A 
ATOM      7  C   UNL A   1      70.122  70.762  51.353  0.00  0.00    +0.041 C 
ATOM      8  N   UNL A   1      74.966  70.572  51.250  0.00  0.00    -0.279 N 
ATOM      9  C   UNL A   1      73.245  70.734  52.586  0.00  0.00    +0.093 A 
ATOM     10  N   UNL A   1      74.599  70.679  52.517  0.00  0.00    -0.173 NA
ATOM     11  H   UNL A   1      75.957  70.512  50.925  0.00  0.00    +0.189 HD
ENDROOT
BRANCH   9  12
ATOM     12  C   UNL A   1      72.552  70.855  53.894  0.00  0.00    +0.037 C 
ATOM     13  C   UNL A   1      73.195  70.613  55.052  0.00  0.00    +0.093 C 
BRANCH  13  14
ATOM     14  C   UNL A   1      72.534  70.725  56.371  0.00  0.00    +0.330 C 
ATOM     15  O   UNL A   1      73.133  70.449  57.401  0.00  0.00    -0.246 OA
BRANCH  14  16
ATOM     16  O   UNL A   1      71.251  71.141  56.430  0.00  0.00    -0.477 OA
ATOM     17  H   UNL A   1      70.787  71.226  57.275  0.00  0.00    +0.295 HD
ENDBRANCH  14  16
ENDBRANCH  13  14
ENDBRANCH   9  12
TORSDOF 3
ENDMDL
MODEL 2
REMARK minimizedAffinity -2.84417844
REMARK minimizedRMSD -1
REMARK  Name = *****
REMARK  4 active torsions:
REMARK  status: ('A' for Active; 'I' for Inactive)
REMARK    1  A    between atoms: C_2  and  C_7
REMARK    2  A    between atoms: C_9  and  C_11
REMARK    3  A    between atoms: C_12  and  C_13
REMARK    4  A    between atoms: C_13  and  O_17
REMARK                            x       y       z     vdW  Elec       q    Type
REMARK                         _______ _______ _______ _____ _____    ______ ____
ROOT
ATOM      1  C   UNL A   1      72.418  70.618  51.018  0.00  0.00    +0.024 A 
ATOM      2  C   UNL A   1      73.836  70.506  51.095  0.00  0.00    -0.072 A 
ATOM      3  C   UNL A   1      74.549  70.421  49.876  0.00  0.00    -0.194 A 
ATOM      4  C   UNL A   1      73.889  70.446  48.636  0.00  0.00    -0.527 A 
ATOM      5  C   UNL A   1      72.498  70.556  48.580  0.00  0.00    -0.170 A 
ATOM      6  C   UNL A   1      71.803  70.639  49.781  0.00  0.00    +0.034 A 
ATOM      7  C   UNL A   1      74.667  70.468  52.347  0.00  0.00    +0.041 C 
ATOM      8  N   UNL A   1      70.477  70.749  49.923  0.00  0.00    -0.279 N 
ATOM      9  C   UNL A   1      71.345  70.725  51.927  0.00  0.00    +0.093 A 
ATOM     10  N   UNL A   1      70.193  70.800  51.213  0.00  0.00    -0.173 NA
ATOM     11  H   UNL A   1      69.765  70.788  49.159  0.00  0.00    +0.189 HD
ENDROOT
BRANCH   9  12
ATOM     12  C   UNL A   1      71.327  70.760  53.412  0.00  0.00    +0.037 C 
ATOM     13  C   UNL A   1      72.457  70.940  54.121  0.00  0.00    +0.093 C 
BRANCH  13  14
ATOM     14  C   UNL A   1      72.473  70.981  55.600  0.00  0.00    +0.330 C 
ATOM     15  O   UNL A   1      73.522  70.890  56.221  0.00  0.00    -0.246 OA
BRANCH  14  16
ATOM     16  O   UNL A   1      71.308  71.123  56.267  0.00  0.00    -0.477 OA
ATOM     17  H   UNL A   1      71.279  71.154  57.234  0.00  0.00    +0.295 HD
ENDBRANCH  14  16
ENDBRANCH  13  14
ENDBRANCH   9  12
TORSDOF 3
ENDMDL
