MODEL 1
REMARK minimizedAffinity -0.918400943
REMARK minimizedRMSD -1
REMARK  Name = *****
REMARK  4 active torsions:
REMARK  status: ('A' for Active; 'I' for Inactive)
REMARK    1  A    between atoms: C_3  and  C_21
REMARK    2  A    between atoms: C_9  and  C_11
REMARK    3  A    between atoms: C_12  and  C_13
REMARK    4  A    between atoms: C_13  and  O_17
REMARK                            x       y       z     vdW  Elec       q    Type
REMARK                         _______ _______ _______ _____ _____    ______ ____
ROOT
ATOM      1  C   UNL A   1      73.203  70.659  51.807  0.00  0.00    +0.022 A 
ATOM      2  C   UNL A   1      72.401  70.810  52.937  0.00  0.00    -0.020 A 
ATOM      3  C   UNL A   1      73.044  70.896  54.195  0.00  0.00    -0.208 A 
ATOM      4  C   UNL A   1      74.459  70.827  54.272  0.00  0.00    -0.524 A 
ATOM      5  C   UNL A   1      75.235  70.673  53.109  0.00  0.00    -0.170 A 
ATOM      6  C   UNL A   1      74.564  70.594  51.892  0.00  0.00    +0.034 A 
ATOM      7  N   UNL A   1      75.082  70.448  50.661  0.00  0.00    -0.279 N 
ATOM      8  C   UNL A   1      72.915  70.546  50.462  0.00  0.00    +0.093 A 
ATOM      9  N   UNL A   1      74.085  70.418  49.784  0.00  0.00    -0.173 NA
ATOM     10  H   UNL A   1      76.093  70.370  50.412  0.00  0.00    +0.189 HD
ATOM     11  C   UNL A   1      72.241  71.059  55.451  0.00  0.00    +0.005 C 
ENDROOT
BRANCH   8  12
ATOM     12  C   UNL A   1      71.576  70.559  49.842  0.00  0.00    +0.037 C 
ATOM     13  C   UNL A   1      70.466  70.803  50.557  0.00  0.00    +0.093 C 
BRANCH  13  14
ATOM     14  C   UNL A   1      69.118  70.819  49.950  0.00  0.00    +0.330 C 
ATOM     15  O   UNL A   1      68.115  70.804  50.650  0.00  0.00    -0.246 OA
BRANCH  14  16
ATOM     16  O   UNL A   1      69.001  70.851  48.607  0.00  0.00    -0.477 OA
ATOM     17  H   UNL A   1      68.135  70.862  48.175  0.00  0.00    +0.295 HD
ENDBRANCH  14  16
ENDBRANCH  13  14
ENDBRANCH   8  12
TORSDOF 3
ENDMDL
