MODEL 1
REMARK minimizedAffinity -3.00951433
REMARK minimizedRMSD -1
REMARK  Name = *****
REMARK  4 active torsions:
REMARK  status: ('A' for Active; 'I' for Inactive)
REMARK    1  A    between atoms: C_5  and  C_22
REMARK    2  A    between atoms: C_9  and  C_11
REMARK    3  A    between atoms: C_12  and  C_13
REMARK    4  A    between atoms: C_13  and  O_17
REMARK                            x       y       z     vdW  Elec       q    Type
REMARK                         _______ _______ _______ _____ _____    ______ ____
ROOT
ATOM      1  C   UNL A   1      72.043  70.688  51.933  0.00  0.00    +0.022 A 
ATOM      2  C   UNL A   1      70.650  70.672  51.912  0.00  0.00    -0.023 A 
ATOM      3  C   UNL A   1      70.018  70.597  50.658  0.00  0.00    -0.197 A 
ATOM      4  C   UNL A   1      70.780  70.541  49.470  0.00  0.00    -0.524 A 
ATOM      5  C   UNL A   1      72.193  70.560  49.520  0.00  0.00    -0.183 A 
ATOM      6  C   UNL A   1      72.786  70.635  50.786  0.00  0.00    +0.037 A 
ATOM      7  N   UNL A   1      74.092  70.666  51.104  0.00  0.00    -0.279 N 
ATOM      8  C   UNL A   1      72.962  70.753  52.962  0.00  0.00    +0.093 A 
ATOM      9  N   UNL A   1      74.207  70.738  52.426  0.00  0.00    -0.173 NA
ATOM     10  H   UNL A   1      74.901  70.639  50.444  0.00  0.00    +0.189 HD
ATOM     11  C   UNL A   1      73.022  70.501  48.272  0.00  0.00    +0.007 C 
ENDROOT
BRANCH   8  12
ATOM     12  C   UNL A   1      72.664  70.828  54.406  0.00  0.00    +0.037 C 
ATOM     13  C   UNL A   1      73.559  70.452  55.334  0.00  0.00    +0.093 C 
BRANCH  13  14
ATOM     14  C   UNL A   1      73.277  70.521  56.783  0.00  0.00    +0.330 C 
ATOM     15  O   UNL A   1      72.134  70.668  57.194  0.00  0.00    -0.246 OA
BRANCH  14  16
ATOM     16  O   UNL A   1      74.297  70.418  57.659  0.00  0.00    -0.477 OA
ATOM     17  H   UNL A   1      74.149  70.458  58.614  0.00  0.00    +0.295 HD
ENDBRANCH  14  16
ENDBRANCH  13  14
ENDBRANCH   8  12
TORSDOF 3
ENDMDL
MODEL 2
REMARK minimizedAffinity -1.96669805
REMARK minimizedRMSD -1
REMARK  Name = *****
REMARK  4 active torsions:
REMARK  status: ('A' for Active; 'I' for Inactive)
REMARK    1  A    between atoms: C_5  and  C_22
REMARK    2  A    between atoms: C_9  and  C_11
REMARK    3  A    between atoms: C_12  and  C_13
REMARK    4  A    between atoms: C_13  and  O_17
REMARK                            x       y       z     vdW  Elec       q    Type
REMARK                         _______ _______ _______ _____ _____    ______ ____
ROOT
ATOM      1  C   UNL A   1      73.146  70.648  51.969  0.00  0.00    +0.022 A 
ATOM      2  C   UNL A   1      74.486  70.511  51.612  0.00  0.00    -0.023 A 
ATOM      3  C   UNL A   1      74.790  70.422  50.242  0.00  0.00    -0.197 A 
ATOM      4  C   UNL A   1      73.763  70.470  49.272  0.00  0.00    -0.524 A 
ATOM      5  C   UNL A   1      72.412  70.609  49.662  0.00  0.00    -0.183 A 
ATOM      6  C   UNL A   1      72.148  70.695  51.034  0.00  0.00    +0.037 A 
ATOM      7  N   UNL A   1      70.965  70.830  51.658  0.00  0.00    -0.279 N 
ATOM      8  C   UNL A   1      72.511  70.761  53.190  0.00  0.00    +0.093 A 
ATOM      9  N   UNL A   1      71.177  70.871  52.969  0.00  0.00    -0.173 NA
ATOM     10  H   UNL A   1      70.023  70.894  51.213  0.00  0.00    +0.189 HD
ATOM     11  C   UNL A   1      71.306  70.662  48.650  0.00  0.00    +0.007 C 
ENDROOT
BRANCH   8  12
ATOM     12  C   UNL A   1      73.151  70.764  54.519  0.00  0.00    +0.037 C 
ATOM     13  C   UNL A   1      72.460  70.492  55.639  0.00  0.00    +0.093 C 
BRANCH  13  14
ATOM     14  C   UNL A   1      73.086  70.491  56.977  0.00  0.00    +0.330 C 
ATOM     15  O   UNL A   1      72.404  70.554  57.990  0.00  0.00    -0.246 OA
BRANCH  14  16
ATOM     16  O   UNL A   1      74.430  70.419  57.076  0.00  0.00    -0.477 OA
ATOM     17  H   UNL A   1      74.874  70.416  57.936  0.00  0.00    +0.295 HD
ENDBRANCH  14  16
ENDBRANCH  13  14
ENDBRANCH   8  12
TORSDOF 3
ENDMDL
MODEL 3
REMARK minimizedAffinity -0.96257019
REMARK minimizedRMSD -1
REMARK  Name = *****
REMARK  4 active torsions:
REMARK  status: ('A' for Active; 'I' for Inactive)
REMARK    1  A    between atoms: C_5  and  C_22
REMARK    2  A    between atoms: C_9  and  C_11
REMARK    3  A    between atoms: C_12  and  C_13
REMARK    4  A    between atoms: C_13  and  O_17
REMARK                            x       y       z     vdW  Elec       q    Type
REMARK                         _______ _______ _______ _____ _____    ______ ____
ROOT
ATOM      1  C   UNL A   1      72.674  70.640  52.225  0.00  0.00    +0.022 A 
ATOM      2  C   UNL A   1      74.054  70.445  52.251  0.00  0.00    -0.023 A 
ATOM      3  C   UNL A   1      74.732  70.423  51.020  0.00  0.00    -0.197 A 
ATOM      4  C   UNL A   1      74.028  70.594  49.807  0.00  0.00    -0.524 A 
ATOM      5  C   UNL A   1      72.628  70.789  49.809  0.00  0.00    -0.183 A 
ATOM      6  C   UNL A   1      71.987  70.805  51.054  0.00  0.00    +0.037 A 
ATOM      7  N   UNL A   1      70.681  70.972  51.328  0.00  0.00    -0.279 N 
ATOM      8  C   UNL A   1      71.722  70.714  53.223  0.00  0.00    +0.093 A 
ATOM      9  N   UNL A   1      70.512  70.918  52.645  0.00  0.00    -0.173 NA
ATOM     10  H   UNL A   1      69.909  71.121  50.641  0.00  0.00    +0.189 HD
ATOM     11  C   UNL A   1      71.860  70.973  48.534  0.00  0.00    +0.007 C 
ENDROOT
BRANCH   8  12
ATOM     12  C   UNL A   1      71.956  70.595  54.675  0.00  0.00    +0.037 C 
ATOM     13  C   UNL A   1      73.178  70.746  55.210  0.00  0.00    +0.093 C 
BRANCH  13  14
ATOM     14  C   UNL A   1      73.429  70.630  56.662  0.00  0.00    +0.330 C 
ATOM     15  O   UNL A   1      74.556  70.428  57.091  0.00  0.00    -0.246 OA
BRANCH  14  16
ATOM     16  O   UNL A   1      72.396  70.751  57.521  0.00  0.00    -0.477 OA
ATOM     17  H   UNL A   1      72.523  70.681  58.477  0.00  0.00    +0.295 HD
ENDBRANCH  14  16
ENDBRANCH  13  14
ENDBRANCH   8  12
TORSDOF 3
ENDMDL
