MODEL 1
REMARK minimizedAffinity -0.928481221
REMARK minimizedRMSD -1
REMARK  Name = *****
REMARK  4 active torsions:
REMARK  status: ('A' for Active; 'I' for Inactive)
REMARK    1  A    between atoms: C_10  and  C_12
REMARK    2  A    between atoms: C_13  and  C_14
REMARK    3  A    between atoms: C_14  and  O_18
REMARK    4  A    between atoms: N_20  and  O_23
REMARK                            x       y       z     vdW  Elec       q    Type
REMARK                         _______ _______ _______ _____ _____    ______ ____
ROOT
ATOM      1  C   UNL A   1      72.834  71.150  50.082  0.00  0.00    +0.009 A 
ATOM      2  C   UNL A   1      72.015  70.994  51.134  0.00  0.00    +0.051 C 
ATOM      3  C   UNL A   1      72.514  71.103  52.535  0.00  0.00    -0.063 C 
ATOM      4  C   UNL A   1      73.836  71.367  52.609  0.00  0.00    -0.501 C 
ATOM      5  C   UNL A   1      74.726  71.537  51.421  0.00  0.00    -0.169 C 
ATOM      6  C   UNL A   1      74.158  71.415  50.226  0.00  0.00    +0.031 A 
ATOM      7  N   UNL A   1      74.732  71.521  49.017  0.00  0.00    -0.279 N 
ATOM      8  C   UNL A   1      72.619  71.098  48.717  0.00  0.00    +0.090 A 
ATOM      9  N   UNL A   1      73.800  71.328  48.090  0.00  0.00    -0.174 NA
ATOM     10  N   UNL A   1      71.639  70.935  53.431  0.00  0.00    -0.081 NA
ATOM     11  H   UNL A   1      75.737  71.719  48.813  0.00  0.00    +0.189 HD
ENDROOT
BRANCH   8  12
ATOM     12  C   UNL A   1      71.337  70.837  48.030  0.00  0.00    +0.037 C 
ATOM     13  C   UNL A   1      70.175  71.333  48.486  0.00  0.00    +0.093 C 
BRANCH  13  14
ATOM     14  C   UNL A   1      68.885  71.080  47.810  0.00  0.00    +0.330 C 
ATOM     15  O   UNL A   1      68.841  70.809  46.619  0.00  0.00    -0.246 OA
BRANCH  14  16
ATOM     16  O   UNL A   1      67.742  71.152  48.525  0.00  0.00    -0.477 OA
ATOM     17  H   UNL A   1      66.880  70.992  48.116  0.00  0.00    +0.295 HD
ENDBRANCH  14  16
ENDBRANCH  13  14
ENDBRANCH   8  12
BRANCH  10  18
ATOM     18  O   UNL A   1      71.949  71.006  54.709  0.00  0.00    -0.187 OA
ATOM     19  O   UNL A   1      73.045  70.899  55.042  0.00  0.00    +0.053 OA
ENDBRANCH  10  18
TORSDOF 4
ENDMDL
MODEL 2
REMARK minimizedAffinity -0.026263155
REMARK minimizedRMSD -1
REMARK  Name = *****
REMARK  4 active torsions:
REMARK  status: ('A' for Active; 'I' for Inactive)
REMARK    1  A    between atoms: C_10  and  C_12
REMARK    2  A    between atoms: C_13  and  C_14
REMARK    3  A    between atoms: C_14  and  O_18
REMARK    4  A    between atoms: N_20  and  O_23
REMARK                            x       y       z     vdW  Elec       q    Type
REMARK                         _______ _______ _______ _____ _____    ______ ____
ROOT
ATOM      1  C   UNL A   1      71.775  71.028  50.367  0.00  0.00    +0.009 A 
ATOM      2  C   UNL A   1      73.110  71.164  50.310  0.00  0.00    +0.051 C 
ATOM      3  C   UNL A   1      73.833  71.233  49.008  0.00  0.00    -0.063 C 
ATOM      4  C   UNL A   1      73.013  71.143  47.940  0.00  0.00    -0.501 C 
ATOM      5  C   UNL A   1      71.529  70.992  48.030  0.00  0.00    -0.169 C 
ATOM      6  C   UNL A   1      71.006  70.944  49.251  0.00  0.00    +0.031 A 
ATOM      7  N   UNL A   1      69.716  70.814  49.599  0.00  0.00    -0.279 N 
ATOM      8  C   UNL A   1      70.890  70.943  51.426  0.00  0.00    +0.090 A 
ATOM      9  N   UNL A   1      69.637  70.812  50.925  0.00  0.00    -0.174 NA
ATOM     10  N   UNL A   1      75.086  71.361  49.097  0.00  0.00    -0.081 NA
ATOM     11  H   UNL A   1      68.897  70.727  48.957  0.00  0.00    +0.189 HD
ENDROOT
BRANCH   8  12
ATOM     12  C   UNL A   1      71.222  70.983  52.866  0.00  0.00    +0.037 C 
ATOM     13  C   UNL A   1      72.480  71.178  53.297  0.00  0.00    +0.093 C 
BRANCH  13  14
ATOM     14  C   UNL A   1      72.828  71.220  54.733  0.00  0.00    +0.330 C 
ATOM     15  O   UNL A   1      72.050  70.809  55.581  0.00  0.00    -0.246 OA
BRANCH  14  16
ATOM     16  O   UNL A   1      74.024  71.721  55.106  0.00  0.00    -0.477 OA
ATOM     17  H   UNL A   1      74.286  71.764  56.036  0.00  0.00    +0.295 HD
ENDBRANCH  14  16
ENDBRANCH  13  14
ENDBRANCH   8  12
BRANCH  10  18
ATOM     18  O   UNL A   1      75.843  71.433  48.022  0.00  0.00    -0.187 OA
ATOM     19  O   UNL A   1      75.961  72.435  47.468  0.00  0.00    +0.053 OA
ENDBRANCH  10  18
TORSDOF 4
ENDMDL
