MODEL 1
REMARK minimizedAffinity -2.56182075
REMARK minimizedRMSD -1
REMARK  Name = *****
REMARK  4 active torsions:
REMARK  status: ('A' for Active; 'I' for Inactive)
REMARK    1  A    between atoms: C_5  and  C_22
REMARK    2  A    between atoms: C_9  and  C_11
REMARK    3  A    between atoms: C_12  and  C_13
REMARK    4  A    between atoms: C_13  and  O_17
REMARK                            x       y       z     vdW  Elec       q    Type
REMARK                         _______ _______ _______ _____ _____    ______ ____
ROOT
ATOM      1  C   UNL A   1      72.454  71.040  50.423  0.00  0.00    +0.022 A 
ATOM      2  C   UNL A   1      73.835  71.169  50.556  0.00  0.00    -0.023 A 
ATOM      3  C   UNL A   1      74.604  71.181  49.378  0.00  0.00    -0.197 A 
ATOM      4  C   UNL A   1      73.986  71.065  48.113  0.00  0.00    -0.524 A 
ATOM      5  C   UNL A   1      72.582  70.934  48.008  0.00  0.00    -0.183 A 
ATOM      6  C   UNL A   1      71.851  70.926  49.201  0.00  0.00    +0.037 A 
ATOM      7  N   UNL A   1      70.521  70.816  49.374  0.00  0.00    -0.279 N 
ATOM      8  C   UNL A   1      71.427  70.992  51.346  0.00  0.00    +0.093 A 
ATOM      9  N   UNL A   1      70.257  70.856  50.675  0.00  0.00    -0.173 NA
ATOM     10  H   UNL A   1      69.797  70.715  48.629  0.00  0.00    +0.189 HD
ATOM     11  C   UNL A   1      71.905  70.810  46.676  0.00  0.00    +0.007 C 
ENDROOT
BRANCH   8  12
ATOM     12  C   UNL A   1      71.557  71.075  52.813  0.00  0.00    +0.037 C 
ATOM     13  C   UNL A   1      72.752  71.021  53.423  0.00  0.00    +0.093 C 
BRANCH  13  14
ATOM     14  C   UNL A   1      72.898  71.102  54.891  0.00  0.00    +0.330 C 
ATOM     15  O   UNL A   1      71.971  70.809  55.633  0.00  0.00    -0.246 OA
BRANCH  14  16
ATOM     16  O   UNL A   1      74.074  71.506  55.415  0.00  0.00    -0.477 OA
ATOM     17  H   UNL A   1      74.206  71.571  56.372  0.00  0.00    +0.295 HD
ENDBRANCH  14  16
ENDBRANCH  13  14
ENDBRANCH   8  12
TORSDOF 3
ENDMDL
MODEL 2
REMARK minimizedAffinity 0.0982087106
REMARK minimizedRMSD -1
REMARK  Name = *****
REMARK  4 active torsions:
REMARK  status: ('A' for Active; 'I' for Inactive)
REMARK    1  A    between atoms: C_5  and  C_22
REMARK    2  A    between atoms: C_9  and  C_11
REMARK    3  A    between atoms: C_12  and  C_13
REMARK    4  A    between atoms: C_13  and  O_17
REMARK                            x       y       z     vdW  Elec       q    Type
REMARK                         _______ _______ _______ _____ _____    ______ ____
ROOT
ATOM      1  C   UNL A   1      71.207  71.076  49.453  0.00  0.00    +0.022 A 
ATOM      2  C   UNL A   1      70.407  71.177  50.590  0.00  0.00    -0.023 A 
ATOM      3  C   UNL A   1      69.013  71.155  50.409  0.00  0.00    -0.197 A 
ATOM      4  C   UNL A   1      68.456  71.036  49.116  0.00  0.00    -0.524 A 
ATOM      5  C   UNL A   1      69.291  70.937  47.980  0.00  0.00    -0.183 A 
ATOM      6  C   UNL A   1      70.673  70.962  48.199  0.00  0.00    +0.037 A 
ATOM      7  N   UNL A   1      71.670  70.883  47.301  0.00  0.00    -0.279 N 
ATOM      8  C   UNL A   1      72.576  71.065  49.272  0.00  0.00    +0.093 A 
ATOM      9  N   UNL A   1      72.831  70.946  47.946  0.00  0.00    -0.173 NA
ATOM     10  H   UNL A   1      71.578  70.789  46.265  0.00  0.00    +0.189 HD
ATOM     11  C   UNL A   1      68.722  70.809  46.598  0.00  0.00    +0.007 C 
ENDROOT
BRANCH   8  12
ATOM     12  C   UNL A   1      73.605  71.164  50.325  0.00  0.00    +0.037 C 
ATOM     13  C   UNL A   1      73.310  71.582  51.567  0.00  0.00    +0.093 C 
BRANCH  13  14
ATOM     14  C   UNL A   1      74.329  71.687  52.632  0.00  0.00    +0.330 C 
ATOM     15  O   UNL A   1      74.019  71.582  53.811  0.00  0.00    -0.246 OA
BRANCH  14  16
ATOM     16  O   UNL A   1      75.617  71.900  52.294  0.00  0.00    -0.477 OA
ATOM     17  H   UNL A   1      76.311  71.974  52.964  0.00  0.00    +0.295 HD
ENDBRANCH  14  16
ENDBRANCH  13  14
ENDBRANCH   8  12
TORSDOF 3
ENDMDL
