MODEL 1
REMARK minimizedAffinity 1.62163258
REMARK minimizedRMSD -1
REMARK  Name = *****
REMARK  3 active torsions:
REMARK  status: ('A' for Active; 'I' for Inactive)
REMARK    1  A    between atoms: C_10  and  C_12
REMARK    2  A    between atoms: C_13  and  C_14
REMARK    3  A    between atoms: C_14  and  O_18
REMARK                            x       y       z     vdW  Elec       q    Type
REMARK                         _______ _______ _______ _____ _____    ______ ____
ROOT
ATOM      1  C   UNL A   1      73.084  71.167  49.957  0.00  0.00    +0.022 A 
ATOM      2  C   UNL A   1      72.339  71.050  51.128  0.00  0.00    -0.009 A 
ATOM      3  C   UNL A   1      73.021  71.192  52.353  0.00  0.00    -0.139 A 
ATOM      4  C   UNL A   1      74.413  71.443  52.372  0.00  0.00    -0.512 A 
ATOM      5  C   UNL A   1      75.135  71.556  51.169  0.00  0.00    -0.169 A 
ATOM      6  C   UNL A   1      74.428  71.410  49.978  0.00  0.00    +0.034 A 
ATOM      7  N   UNL A   1      74.890  71.476  48.718  0.00  0.00    -0.279 N 
ATOM      8  C   UNL A   1      72.750  71.087  48.619  0.00  0.00    +0.093 A 
ATOM      9  N   UNL A   1      73.875  71.280  47.885  0.00  0.00    -0.173 NA
ATOM     10 BR   UNL A   1      72.060  71.043  53.997  0.00  0.00    -0.089 Br
ATOM     11  H   UNL A   1      75.875  71.649  48.421  0.00  0.00    +0.189 HD
ENDROOT
BRANCH   8  12
ATOM     12  C   UNL A   1      71.407  70.836  48.061  0.00  0.00    +0.037 C 
ATOM     13  C   UNL A   1      70.289  71.184  48.721  0.00  0.00    +0.093 C 
BRANCH  13  14
ATOM     14  C   UNL A   1      68.937  70.939  48.174  0.00  0.00    +0.330 C 
ATOM     15  O   UNL A   1      67.967  70.851  48.914  0.00  0.00    -0.246 OA
BRANCH  14  16
ATOM     16  O   UNL A   1      68.778  70.814  46.841  0.00  0.00    -0.477 OA
ATOM     17  H   UNL A   1      67.908  70.652  46.448  0.00  0.00    +0.295 HD
ENDBRANCH  14  16
ENDBRANCH  13  14
ENDBRANCH   8  12
TORSDOF 3
ENDMDL
MODEL 2
REMARK minimizedAffinity 2.47139573
REMARK minimizedRMSD -1
REMARK  Name = *****
REMARK  3 active torsions:
REMARK  status: ('A' for Active; 'I' for Inactive)
REMARK    1  A    between atoms: C_10  and  C_12
REMARK    2  A    between atoms: C_13  and  C_14
REMARK    3  A    between atoms: C_14  and  O_18
REMARK                            x       y       z     vdW  Elec       q    Type
REMARK                         _______ _______ _______ _____ _____    ______ ____
ROOT
ATOM      1  C   UNL A   1      72.387  71.216  50.551  0.00  0.00    +0.022 A 
ATOM      2  C   UNL A   1      72.988  71.327  49.299  0.00  0.00    -0.009 A 
ATOM      3  C   UNL A   1      74.392  71.444  49.257  0.00  0.00    -0.139 A 
ATOM      4  C   UNL A   1      75.146  71.448  50.455  0.00  0.00    -0.512 A 
ATOM      5  C   UNL A   1      74.505  71.335  51.703  0.00  0.00    -0.169 A 
ATOM      6  C   UNL A   1      73.117  71.220  51.705  0.00  0.00    +0.034 A 
ATOM      7  N   UNL A   1      72.290  71.101  52.757  0.00  0.00    -0.279 N 
ATOM      8  C   UNL A   1      71.072  71.089  50.953  0.00  0.00    +0.093 A 
ATOM      9  N   UNL A   1      71.043  71.020  52.308  0.00  0.00    -0.173 NA
ATOM     10 BR   UNL A   1      75.281  71.599  47.574  0.00  0.00    -0.089 Br
ATOM     11  H   UNL A   1      72.559  71.073  53.765  0.00  0.00    +0.189 HD
ENDROOT
BRANCH   8  12
ATOM     12  C   UNL A   1      69.885  71.034  50.077  0.00  0.00    +0.037 C 
ATOM     13  C   UNL A   1      69.978  71.198  48.747  0.00  0.00    +0.093 C 
BRANCH  13  14
ATOM     14  C   UNL A   1      68.799  71.145  47.856  0.00  0.00    +0.330 C 
ATOM     15  O   UNL A   1      68.910  70.810  46.685  0.00  0.00    -0.246 OA
BRANCH  14  16
ATOM     16  O   UNL A   1      67.586  71.472  48.348  0.00  0.00    -0.477 OA
ATOM     17  H   UNL A   1      66.793  71.451  47.795  0.00  0.00    +0.295 HD
ENDBRANCH  14  16
ENDBRANCH  13  14
ENDBRANCH   8  12
TORSDOF 3
ENDMDL
MODEL 3
REMARK minimizedAffinity 2.95093393
REMARK minimizedRMSD -1
REMARK  Name = *****
REMARK  3 active torsions:
REMARK  status: ('A' for Active; 'I' for Inactive)
REMARK    1  A    between atoms: C_10  and  C_12
REMARK    2  A    between atoms: C_13  and  C_14
REMARK    3  A    between atoms: C_14  and  O_18
REMARK                            x       y       z     vdW  Elec       q    Type
REMARK                         _______ _______ _______ _____ _____    ______ ____
ROOT
ATOM      1  C   UNL A   1      71.861  71.137  50.165  0.00  0.00    +0.022 A 
ATOM      2  C   UNL A   1      71.208  71.072  48.936  0.00  0.00    -0.009 A 
ATOM      3  C   UNL A   1      69.809  70.905  48.948  0.00  0.00    -0.139 A 
ATOM      4  C   UNL A   1      69.110  70.810  50.175  0.00  0.00    -0.512 A 
ATOM      5  C   UNL A   1      69.802  70.880  51.398  0.00  0.00    -0.169 A 
ATOM      6  C   UNL A   1      71.184  71.044  51.348  0.00  0.00    +0.034 A 
ATOM      7  N   UNL A   1      72.053  71.138  52.368  0.00  0.00    -0.279 N 
ATOM      8  C   UNL A   1      73.188  71.291  50.516  0.00  0.00    +0.093 A 
ATOM      9  N   UNL A   1      73.275  71.288  51.870  0.00  0.00    -0.173 NA
ATOM     10 BR   UNL A   1      68.850  70.809  47.299  0.00  0.00    -0.089 Br
ATOM     11  H   UNL A   1      71.828  71.101  53.387  0.00  0.00    +0.189 HD
ENDROOT
BRANCH   8  12
ATOM     12  C   UNL A   1      74.331  71.436  49.595  0.00  0.00    +0.037 C 
ATOM     13  C   UNL A   1      74.170  71.434  48.261  0.00  0.00    +0.093 C 
BRANCH  13  14
ATOM     14  C   UNL A   1      75.306  71.578  47.325  0.00  0.00    +0.330 C 
ATOM     15  O   UNL A   1      75.291  71.033  46.229  0.00  0.00    -0.246 OA
BRANCH  14  16
ATOM     16  O   UNL A   1      76.370  72.323  47.689  0.00  0.00    -0.477 OA
ATOM     17  H   UNL A   1      77.131  72.439  47.103  0.00  0.00    +0.295 HD
ENDBRANCH  14  16
ENDBRANCH  13  14
ENDBRANCH   8  12
TORSDOF 3
ENDMDL
MODEL 4
REMARK minimizedAffinity 3.53545308
REMARK minimizedRMSD -1
REMARK  Name = *****
REMARK  3 active torsions:
REMARK  status: ('A' for Active; 'I' for Inactive)
REMARK    1  A    between atoms: C_10  and  C_12
REMARK    2  A    between atoms: C_13  and  C_14
REMARK    3  A    between atoms: C_14  and  O_18
REMARK                            x       y       z     vdW  Elec       q    Type
REMARK                         _______ _______ _______ _____ _____    ______ ____
ROOT
ATOM      1  C   UNL A   1      72.510  71.050  49.990  0.00  0.00    +0.022 A 
ATOM      2  C   UNL A   1      71.133  70.993  49.784  0.00  0.00    -0.009 A 
ATOM      3  C   UNL A   1      70.675  70.890  48.456  0.00  0.00    -0.139 A 
ATOM      4  C   UNL A   1      71.596  70.847  47.383  0.00  0.00    -0.512 A 
ATOM      5  C   UNL A   1      72.981  70.905  47.627  0.00  0.00    -0.169 A 
ATOM      6  C   UNL A   1      73.397  71.007  48.952  0.00  0.00    +0.034 A 
ATOM      7  N   UNL A   1      74.649  71.077  49.432  0.00  0.00    -0.279 N 
ATOM      8  C   UNL A   1      73.286  71.150  51.128  0.00  0.00    +0.093 A 
ATOM      9  N   UNL A   1      74.591  71.165  50.756  0.00  0.00    -0.173 NA
ATOM     10 BR   UNL A   1      68.800  70.809  48.103  0.00  0.00    -0.089 Br
ATOM     11  H   UNL A   1      75.534  71.067  48.877  0.00  0.00    +0.189 HD
ENDROOT
BRANCH   8  12
ATOM     12  C   UNL A   1      72.802  71.229  52.520  0.00  0.00    +0.037 C 
ATOM     13  C   UNL A   1      73.627  71.061  53.567  0.00  0.00    +0.093 C 
BRANCH  13  14
ATOM     14  C   UNL A   1      73.157  71.137  54.967  0.00  0.00    +0.330 C 
ATOM     15  O   UNL A   1      72.017  70.809  55.266  0.00  0.00    -0.246 OA
BRANCH  14  16
ATOM     16  O   UNL A   1      74.002  71.574  55.923  0.00  0.00    -0.477 OA
ATOM     17  H   UNL A   1      73.729  71.638  56.849  0.00  0.00    +0.295 HD
ENDBRANCH  14  16
ENDBRANCH  13  14
ENDBRANCH   8  12
TORSDOF 3
ENDMDL
MODEL 5
REMARK minimizedAffinity 4.24065828
REMARK minimizedRMSD -1
REMARK  Name = *****
REMARK  3 active torsions:
REMARK  status: ('A' for Active; 'I' for Inactive)
REMARK    1  A    between atoms: C_10  and  C_12
REMARK    2  A    between atoms: C_13  and  C_14
REMARK    3  A    between atoms: C_14  and  O_18
REMARK                            x       y       z     vdW  Elec       q    Type
REMARK                         _______ _______ _______ _____ _____    ______ ____
ROOT
ATOM      1  C   UNL A   1      72.208  71.251  50.092  0.00  0.00    +0.022 A 
ATOM      2  C   UNL A   1      73.497  71.470  49.609  0.00  0.00    -0.009 A 
ATOM      3  C   UNL A   1      73.682  71.456  48.212  0.00  0.00    -0.139 A 
ATOM      4  C   UNL A   1      72.586  71.227  47.347  0.00  0.00    -0.512 A 
ATOM      5  C   UNL A   1      71.297  71.010  47.870  0.00  0.00    -0.169 A 
ATOM      6  C   UNL A   1      71.152  71.030  49.255  0.00  0.00    +0.034 A 
ATOM      7  N   UNL A   1      70.036  70.852  49.981  0.00  0.00    -0.279 N 
ATOM      8  C   UNL A   1      71.680  71.197  51.367  0.00  0.00    +0.093 A 
ATOM      9  N   UNL A   1      70.349  70.952  51.268  0.00  0.00    -0.173 NA
ATOM     10 BR   UNL A   1      75.423  71.749  47.483  0.00  0.00    -0.089 Br
ATOM     11  H   UNL A   1      69.075  70.665  49.618  0.00  0.00    +0.189 HD
ENDROOT
BRANCH   8  12
ATOM     12  C   UNL A   1      72.416  71.374  52.633  0.00  0.00    +0.037 C 
ATOM     13  C   UNL A   1      73.491  72.176  52.722  0.00  0.00    +0.093 C 
BRANCH  13  14
ATOM     14  C   UNL A   1      74.239  72.363  53.983  0.00  0.00    +0.330 C 
ATOM     15  O   UNL A   1      73.734  72.079  55.062  0.00  0.00    -0.246 OA
BRANCH  14  16
ATOM     16  O   UNL A   1      75.494  72.853  53.939  0.00  0.00    -0.477 OA
ATOM     17  H   UNL A   1      76.013  72.990  54.744  0.00  0.00    +0.295 HD
ENDBRANCH  14  16
ENDBRANCH  13  14
ENDBRANCH   8  12
TORSDOF 3
ENDMDL
