MODEL 1
REMARK minimizedAffinity -4.64683533
REMARK minimizedRMSD -1
REMARK  Name = *****
REMARK  3 active torsions:
REMARK  status: ('A' for Active; 'I' for Inactive)
REMARK    1  A    between atoms: C_12  and  C_15
REMARK    2  A    between atoms: C_16  and  C_17
REMARK    3  A    between atoms: C_17  and  O_21
REMARK                            x       y       z     vdW  Elec       q    Type
REMARK                         _______ _______ _______ _____ _____    ______ ____
ROOT
ATOM      1  C   UNL A   1      71.536  71.104  50.291  0.00  0.00    +0.027 A 
ATOM      2  C   UNL A   1      70.147  71.009  50.371  0.00  0.00    +0.012 A 
ATOM      3  C   UNL A   1      69.433  70.861  49.167  0.00  0.00    +0.001 A 
ATOM      4  C   UNL A   1      70.115  70.811  47.929  0.00  0.00    +0.002 A 
ATOM      5  C   UNL A   1      71.519  70.910  47.883  0.00  0.00    +0.028 A 
ATOM      6  C   UNL A   1      72.194  71.056  49.094  0.00  0.00    +0.066 A 
ATOM      7  N   UNL A   1      73.515  71.169  49.306  0.00  0.00    -0.276 N 
ATOM      8  C   UNL A   1      72.524  71.252  51.243  0.00  0.00    +0.093 A 
ATOM      9  N   UNL A   1      73.725  71.289  50.613  0.00  0.00    -0.173 NA
ATOM     10  H   UNL A   1      74.268  71.166  48.582  0.00  0.00    +0.189 HD
ENDROOT
BRANCH   8  11
ATOM     11  C   UNL A   1      72.332  71.355  52.703  0.00  0.00    +0.037 C 
ATOM     12  C   UNL A   1      73.299  71.014  53.570  0.00  0.00    +0.093 C 
BRANCH  12  13
ATOM     13  C   UNL A   1      73.123  71.111  55.035  0.00  0.00    +0.330 C 
ATOM     14  O   UNL A   1      72.059  70.812  55.561  0.00  0.00    -0.246 OA
BRANCH  13  15
ATOM     15  O   UNL A   1      74.152  71.537  55.796  0.00  0.00    -0.477 OA
ATOM     16  H   UNL A   1      74.072  71.612  56.758  0.00  0.00    +0.295 HD
ENDBRANCH  13  15
ENDBRANCH  12  13
ENDBRANCH   8  11
TORSDOF 3
ENDMDL
MODEL 2
REMARK minimizedAffinity -3.88571715
REMARK minimizedRMSD -1
REMARK  Name = *****
REMARK  3 active torsions:
REMARK  status: ('A' for Active; 'I' for Inactive)
REMARK    1  A    between atoms: C_12  and  C_15
REMARK    2  A    between atoms: C_16  and  C_17
REMARK    3  A    between atoms: C_17  and  O_21
REMARK                            x       y       z     vdW  Elec       q    Type
REMARK                         _______ _______ _______ _____ _____    ______ ____
ROOT
ATOM      1  C   UNL A   1      72.179  71.034  50.145  0.00  0.00    +0.027 A 
ATOM      2  C   UNL A   1      73.569  71.138  50.193  0.00  0.00    +0.012 A 
ATOM      3  C   UNL A   1      74.269  71.085  48.973  0.00  0.00    +0.001 A 
ATOM      4  C   UNL A   1      73.573  70.933  47.752  0.00  0.00    +0.002 A 
ATOM      5  C   UNL A   1      72.168  70.831  47.739  0.00  0.00    +0.028 A 
ATOM      6  C   UNL A   1      71.507  70.887  48.964  0.00  0.00    +0.066 A 
ATOM      7  N   UNL A   1      70.189  70.813  49.206  0.00  0.00    -0.276 N 
ATOM      8  C   UNL A   1      71.201  71.046  51.120  0.00  0.00    +0.093 A 
ATOM      9  N   UNL A   1      69.994  70.909  50.517  0.00  0.00    -0.173 NA
ATOM     10  H   UNL A   1      69.428  70.698  48.500  0.00  0.00    +0.189 HD
ENDROOT
BRANCH   8  11
ATOM     11  C   UNL A   1      71.409  71.184  52.575  0.00  0.00    +0.037 C 
ATOM     12  C   UNL A   1      72.601  70.945  53.146  0.00  0.00    +0.093 C 
BRANCH  12  13
ATOM     13  C   UNL A   1      72.825  71.078  54.601  0.00  0.00    +0.330 C 
ATOM     14  O   UNL A   1      71.938  70.809  55.401  0.00  0.00    -0.246 OA
BRANCH  13  15
ATOM     15  O   UNL A   1      74.025  71.503  55.048  0.00  0.00    -0.477 OA
ATOM     16  H   UNL A   1      74.207  71.601  55.993  0.00  0.00    +0.295 HD
ENDBRANCH  13  15
ENDBRANCH  12  13
ENDBRANCH   8  11
TORSDOF 3
ENDMDL
MODEL 3
REMARK minimizedAffinity -3.10921931
REMARK minimizedRMSD -1
REMARK  Name = *****
REMARK  3 active torsions:
REMARK  status: ('A' for Active; 'I' for Inactive)
REMARK    1  A    between atoms: C_12  and  C_15
REMARK    2  A    between atoms: C_16  and  C_17
REMARK    3  A    between atoms: C_17  and  O_21
REMARK                            x       y       z     vdW  Elec       q    Type
REMARK                         _______ _______ _______ _____ _____    ______ ____
ROOT
ATOM      1  C   UNL A   1      72.144  71.444  49.895  0.00  0.00    +0.027 A 
ATOM      2  C   UNL A   1      73.500  71.526  49.581  0.00  0.00    +0.012 A 
ATOM      3  C   UNL A   1      73.875  71.283  48.246  0.00  0.00    +0.001 A 
ATOM      4  C   UNL A   1      72.899  70.969  47.272  0.00  0.00    +0.002 A 
ATOM      5  C   UNL A   1      71.537  70.895  47.623  0.00  0.00    +0.028 A 
ATOM      6  C   UNL A   1      71.202  71.140  48.953  0.00  0.00    +0.066 A 
ATOM      7  N   UNL A   1      69.986  71.129  49.523  0.00  0.00    -0.276 N 
ATOM      8  C   UNL A   1      71.440  71.616  51.070  0.00  0.00    +0.093 A 
ATOM      9  N   UNL A   1      70.123  71.418  50.814  0.00  0.00    -0.173 NA
ATOM     10  H   UNL A   1      69.075  70.929  49.054  0.00  0.00    +0.189 HD
ENDROOT
BRANCH   8  11
ATOM     11  C   UNL A   1      72.001  71.959  52.392  0.00  0.00    +0.037 C 
ATOM     12  C   UNL A   1      72.778  71.103  53.075  0.00  0.00    +0.093 C 
BRANCH  12  13
ATOM     13  C   UNL A   1      73.348  71.431  54.399  0.00  0.00    +0.330 C 
ATOM     14  O   UNL A   1      74.245  72.256  54.511  0.00  0.00    -0.246 OA
BRANCH  13  15
ATOM     15  O   UNL A   1      72.868  70.809  55.496  0.00  0.00    -0.477 OA
ATOM     16  H   UNL A   1      73.217  70.999  56.378  0.00  0.00    +0.295 HD
ENDBRANCH  13  15
ENDBRANCH  12  13
ENDBRANCH   8  11
TORSDOF 3
ENDMDL
