MODEL 1
REMARK minimizedAffinity 0.34239772
REMARK minimizedRMSD -1
REMARK  Name = *****
REMARK  4 active torsions:
REMARK  status: ('A' for Active; 'I' for Inactive)
REMARK    1  A    between atoms: N_11  and  C_14
REMARK    2  A    between atoms: C_12  and  C_15
REMARK    3  A    between atoms: C_16  and  C_17
REMARK    4  A    between atoms: C_17  and  O_21
REMARK                            x       y       z     vdW  Elec       q    Type
REMARK                         _______ _______ _______ _____ _____    ______ ____
ROOT
ATOM      1  C   UNL A   1      72.454  71.155  50.228  0.00  0.00    +0.027 A 
ATOM      2  C   UNL A   1      72.992  71.152  48.941  0.00  0.00    +0.012 A 
ATOM      3  C   UNL A   1      74.394  71.181  48.819  0.00  0.00    +0.001 A 
ATOM      4  C   UNL A   1      75.212  71.213  49.970  0.00  0.00    +0.002 A 
ATOM      5  C   UNL A   1      74.640  71.215  51.255  0.00  0.00    +0.028 A 
ATOM      6  C   UNL A   1      73.243  71.186  51.345  0.00  0.00    +0.069 A 
ATOM      7  N   UNL A   1      72.451  71.182  52.438  0.00  0.00    -0.266 N 
ATOM      8  C   UNL A   1      71.154  71.132  50.691  0.00  0.00    +0.093 A 
ATOM      9  N   UNL A   1      71.182  71.149  52.047  0.00  0.00    -0.171 NA
ATOM     10  C   UNL A   1      72.847  71.207  53.844  0.00  0.00    +0.173 C 
ENDROOT
BRANCH   8  11
ATOM     11  C   UNL A   1      69.926  71.095  49.872  0.00  0.00    +0.037 C 
ATOM     12  C   UNL A   1      69.966  71.199  48.534  0.00  0.00    +0.093 C 
BRANCH  12  13
ATOM     13  C   UNL A   1      68.745  71.165  47.699  0.00  0.00    +0.330 C 
ATOM     14  O   UNL A   1      68.795  70.810  46.529  0.00  0.00    -0.246 OA
BRANCH  13  15
ATOM     15  O   UNL A   1      67.566  71.531  48.241  0.00  0.00    -0.477 OA
ATOM     16  H   UNL A   1      66.747  71.522  47.725  0.00  0.00    +0.295 HD
ENDBRANCH  13  15
ENDBRANCH  12  13
ENDBRANCH   8  11
TORSDOF 3
ENDMDL
MODEL 2
REMARK minimizedAffinity 1.52497625
REMARK minimizedRMSD -1
REMARK  Name = *****
REMARK  4 active torsions:
REMARK  status: ('A' for Active; 'I' for Inactive)
REMARK    1  A    between atoms: N_11  and  C_14
REMARK    2  A    between atoms: C_12  and  C_15
REMARK    3  A    between atoms: C_16  and  C_17
REMARK    4  A    between atoms: C_17  and  O_21
REMARK                            x       y       z     vdW  Elec       q    Type
REMARK                         _______ _______ _______ _____ _____    ______ ____
ROOT
ATOM      1  C   UNL A   1      72.306  71.231  50.747  0.00  0.00    +0.027 A 
ATOM      2  C   UNL A   1      71.689  71.264  51.997  0.00  0.00    +0.012 A 
ATOM      3  C   UNL A   1      72.510  71.427  53.128  0.00  0.00    +0.001 A 
ATOM      4  C   UNL A   1      73.910  71.551  52.983  0.00  0.00    +0.002 A 
ATOM      5  C   UNL A   1      74.504  71.514  51.708  0.00  0.00    +0.028 A 
ATOM      6  C   UNL A   1      73.662  71.350  50.603  0.00  0.00    +0.069 A 
ATOM      7  N   UNL A   1      73.968  71.282  49.290  0.00  0.00    -0.266 N 
ATOM      8  C   UNL A   1      71.808  71.088  49.467  0.00  0.00    +0.093 A 
ATOM      9  N   UNL A   1      72.846  71.123  48.597  0.00  0.00    -0.171 NA
ATOM     10  C   UNL A   1      75.284  71.362  48.661  0.00  0.00    +0.173 C 
ENDROOT
BRANCH   8  11
ATOM     11  C   UNL A   1      70.391  70.923  49.086  0.00  0.00    +0.037 C 
ATOM     12  C   UNL A   1      69.939  71.284  47.874  0.00  0.00    +0.093 C 
BRANCH  12  13
ATOM     13  C   UNL A   1      68.522  71.127  47.476  0.00  0.00    +0.330 C 
ATOM     14  O   UNL A   1      67.621  71.278  48.289  0.00  0.00    -0.246 OA
BRANCH  13  15
ATOM     15  O   UNL A   1      68.229  70.811  46.198  0.00  0.00    -0.477 OA
ATOM     16  H   UNL A   1      67.314  70.699  45.902  0.00  0.00    +0.295 HD
ENDBRANCH  13  15
ENDBRANCH  12  13
ENDBRANCH   8  11
TORSDOF 3
ENDMDL
MODEL 3
REMARK minimizedAffinity 2.20239854
REMARK minimizedRMSD -1
REMARK  Name = *****
REMARK  4 active torsions:
REMARK  status: ('A' for Active; 'I' for Inactive)
REMARK    1  A    between atoms: N_11  and  C_14
REMARK    2  A    between atoms: C_12  and  C_15
REMARK    3  A    between atoms: C_16  and  C_17
REMARK    4  A    between atoms: C_17  and  O_21
REMARK                            x       y       z     vdW  Elec       q    Type
REMARK                         _______ _______ _______ _____ _____    ______ ____
ROOT
ATOM      1  C   UNL A   1      71.636  71.057  49.919  0.00  0.00    +0.027 A 
ATOM      2  C   UNL A   1      71.042  71.038  48.657  0.00  0.00    +0.012 A 
ATOM      3  C   UNL A   1      69.642  70.914  48.596  0.00  0.00    +0.001 A 
ATOM      4  C   UNL A   1      68.879  70.813  49.781  0.00  0.00    +0.002 A 
ATOM      5  C   UNL A   1      69.507  70.836  51.040  0.00  0.00    +0.028 A 
ATOM      6  C   UNL A   1      70.901  70.960  51.070  0.00  0.00    +0.069 A 
ATOM      7  N   UNL A   1      71.738  71.006  52.127  0.00  0.00    -0.266 N 
ATOM      8  C   UNL A   1      72.951  71.164  50.326  0.00  0.00    +0.093 A 
ATOM      9  N   UNL A   1      72.984  71.130  51.681  0.00  0.00    -0.171 NA
ATOM     10  C   UNL A   1      71.409  70.938  53.548  0.00  0.00    +0.173 C 
ENDROOT
BRANCH   8  11
ATOM     11  C   UNL A   1      74.136  71.294  49.455  0.00  0.00    +0.037 C 
ATOM     12  C   UNL A   1      74.022  71.466  48.128  0.00  0.00    +0.093 C 
BRANCH  12  13
ATOM     13  C   UNL A   1      75.198  71.598  47.241  0.00  0.00    +0.330 C 
ATOM     14  O   UNL A   1      75.206  71.090  46.128  0.00  0.00    -0.246 OA
BRANCH  13  15
ATOM     15  O   UNL A   1      76.274  72.288  47.672  0.00  0.00    -0.477 OA
ATOM     16  H   UNL A   1      77.062  72.395  47.120  0.00  0.00    +0.295 HD
ENDBRANCH  13  15
ENDBRANCH  12  13
ENDBRANCH   8  11
TORSDOF 3
ENDMDL
