MODEL 1
REMARK minimizedAffinity -2.08581805
REMARK minimizedRMSD -1
REMARK  Name = *****
REMARK  4 active torsions:
REMARK  status: ('A' for Active; 'I' for Inactive)
REMARK    1  A    between atoms: C_3  and  C_21
REMARK    2  A    between atoms: C_9  and  C_11
REMARK    3  A    between atoms: C_12  and  C_13
REMARK    4  A    between atoms: C_13  and  O_17
REMARK                            x       y       z     vdW  Elec       q    Type
REMARK                         _______ _______ _______ _____ _____    ______ ____
ROOT
ATOM      1  C   UNL A   1      71.644  71.209  50.191  0.00  0.00    +0.022 A 
ATOM      2  C   UNL A   1      73.019  71.396  50.058  0.00  0.00    -0.020 A 
ATOM      3  C   UNL A   1      73.547  71.494  48.749  0.00  0.00    -0.208 A 
ATOM      4  C   UNL A   1      72.681  71.402  47.628  0.00  0.00    -0.524 A 
ATOM      5  C   UNL A   1      71.298  71.213  47.802  0.00  0.00    -0.170 A 
ATOM      6  C   UNL A   1      70.819  71.122  49.106  0.00  0.00    +0.034 A 
ATOM      7  N   UNL A   1      69.554  70.944  49.520  0.00  0.00    -0.279 N 
ATOM      8  C   UNL A   1      70.817  71.075  51.289  0.00  0.00    +0.093 A 
ATOM      9  N   UNL A   1      69.544  70.914  50.848  0.00  0.00    -0.173 NA
ATOM     10  H   UNL A   1      68.706  70.844  48.918  0.00  0.00    +0.189 HD
ATOM     11  C   UNL A   1      75.017  71.695  48.534  0.00  0.00    +0.005 C 
ENDROOT
BRANCH   8  12
ATOM     12  C   UNL A   1      71.224  71.100  52.707  0.00  0.00    +0.037 C 
ATOM     13  C   UNL A   1      72.507  71.254  53.074  0.00  0.00    +0.093 C 
BRANCH  13  14
ATOM     14  C   UNL A   1      72.930  71.280  54.490  0.00  0.00    +0.330 C 
ATOM     15  O   UNL A   1      72.197  70.855  55.372  0.00  0.00    -0.246 OA
BRANCH  14  16
ATOM     16  O   UNL A   1      74.141  71.781  54.807  0.00  0.00    -0.477 OA
ATOM     17  H   UNL A   1      74.451  71.815  55.723  0.00  0.00    +0.295 HD
ENDBRANCH  14  16
ENDBRANCH  13  14
ENDBRANCH   8  12
TORSDOF 3
ENDMDL
MODEL 2
REMARK minimizedAffinity -1.53425646
REMARK minimizedRMSD -1
REMARK  Name = *****
REMARK  4 active torsions:
REMARK  status: ('A' for Active; 'I' for Inactive)
REMARK    1  A    between atoms: C_3  and  C_21
REMARK    2  A    between atoms: C_9  and  C_11
REMARK    3  A    between atoms: C_12  and  C_13
REMARK    4  A    between atoms: C_13  and  O_17
REMARK                            x       y       z     vdW  Elec       q    Type
REMARK                         _______ _______ _______ _____ _____    ______ ____
ROOT
ATOM      1  C   UNL A   1      72.879  70.959  49.644  0.00  0.00    +0.022 A 
ATOM      2  C   UNL A   1      71.522  70.990  49.323  0.00  0.00    -0.020 A 
ATOM      3  C   UNL A   1      71.168  70.939  47.954  0.00  0.00    -0.208 A 
ATOM      4  C   UNL A   1      72.181  70.860  46.964  0.00  0.00    -0.524 A 
ATOM      5  C   UNL A   1      73.540  70.832  47.327  0.00  0.00    -0.170 A 
ATOM      6  C   UNL A   1      73.846  70.883  48.683  0.00  0.00    +0.034 A 
ATOM      7  N   UNL A   1      75.055  70.869  49.267  0.00  0.00    -0.279 N 
ATOM      8  C   UNL A   1      73.559  70.991  50.845  0.00  0.00    +0.093 A 
ATOM      9  N   UNL A   1      74.890  70.935  50.584  0.00  0.00    -0.173 NA
ATOM     10  H   UNL A   1      75.982  70.816  48.788  0.00  0.00    +0.189 HD
ATOM     11  C   UNL A   1      69.727  70.968  47.539  0.00  0.00    +0.005 C 
ENDROOT
BRANCH   8  12
ATOM     12  C   UNL A   1      72.965  71.072  52.193  0.00  0.00    +0.037 C 
ATOM     13  C   UNL A   1      73.721  71.060  53.303  0.00  0.00    +0.093 C 
BRANCH  13  14
ATOM     14  C   UNL A   1      73.141  71.140  54.660  0.00  0.00    +0.330 C 
ATOM     15  O   UNL A   1      73.822  71.486  55.615  0.00  0.00    -0.246 OA
BRANCH  14  16
ATOM     16  O   UNL A   1      71.842  70.827  54.840  0.00  0.00    -0.477 OA
ATOM     17  H   UNL A   1      71.428  70.867  55.714  0.00  0.00    +0.295 HD
ENDBRANCH  14  16
ENDBRANCH  13  14
ENDBRANCH   8  12
TORSDOF 3
ENDMDL
MODEL 3
REMARK minimizedAffinity 0.543760777
REMARK minimizedRMSD -1
REMARK  Name = *****
REMARK  4 active torsions:
REMARK  status: ('A' for Active; 'I' for Inactive)
REMARK    1  A    between atoms: C_3  and  C_21
REMARK    2  A    between atoms: C_9  and  C_11
REMARK    3  A    between atoms: C_12  and  C_13
REMARK    4  A    between atoms: C_13  and  O_17
REMARK                            x       y       z     vdW  Elec       q    Type
REMARK                         _______ _______ _______ _____ _____    ______ ____
ROOT
ATOM      1  C   UNL A   1      72.874  71.165  50.114  0.00  0.00    +0.022 A 
ATOM      2  C   UNL A   1      72.060  71.086  51.243  0.00  0.00    -0.020 A 
ATOM      3  C   UNL A   1      72.670  71.249  52.509  0.00  0.00    -0.208 A 
ATOM      4  C   UNL A   1      74.067  71.484  52.595  0.00  0.00    -0.524 A 
ATOM      5  C   UNL A   1      74.856  71.558  51.433  0.00  0.00    -0.170 A 
ATOM      6  C   UNL A   1      74.217  71.392  50.208  0.00  0.00    +0.034 A 
ATOM      7  N   UNL A   1      74.753  71.421  48.976  0.00  0.00    -0.279 N 
ATOM      8  C   UNL A   1      72.616  71.057  48.762  0.00  0.00    +0.093 A 
ATOM      9  N   UNL A   1      73.785  71.217  48.090  0.00  0.00    -0.173 NA
ATOM     10  H   UNL A   1      75.757  71.575  48.733  0.00  0.00    +0.189 HD
ATOM     11  C   UNL A   1      71.852  71.176  53.763  0.00  0.00    +0.005 C 
ENDROOT
BRANCH   8  12
ATOM     12  C   UNL A   1      71.306  70.809  48.131  0.00  0.00    +0.037 C 
ATOM     13  C   UNL A   1      70.171  71.329  48.627  0.00  0.00    +0.093 C 
BRANCH  13  14
ATOM     14  C   UNL A   1      68.850  71.090  48.006  0.00  0.00    +0.330 C 
ATOM     15  O   UNL A   1      68.756  70.809  46.820  0.00  0.00    -0.246 OA
BRANCH  14  16
ATOM     16  O   UNL A   1      67.739  71.184  48.765  0.00  0.00    -0.477 OA
ATOM     17  H   UNL A   1      66.859  71.035  48.392  0.00  0.00    +0.295 HD
ENDBRANCH  14  16
ENDBRANCH  13  14
ENDBRANCH   8  12
TORSDOF 3
ENDMDL
