MODEL 1
REMARK minimizedAffinity 2.77003694
REMARK minimizedRMSD -1
REMARK  Name = *****
REMARK  4 active torsions:
REMARK  status: ('A' for Active; 'I' for Inactive)
REMARK    1  A    between atoms: N_8  and  O_23
REMARK    2  A    between atoms: C_10  and  C_12
REMARK    3  A    between atoms: C_13  and  C_14
REMARK    4  A    between atoms: C_14  and  O_18
REMARK                            x       y       z     vdW  Elec       q    Type
REMARK                         _______ _______ _______ _____ _____    ______ ____
ROOT
ATOM      1  C   UNL A   1      72.167  71.090  49.449  0.00  0.00    +0.023 A 
ATOM      2  C   UNL A   1      72.845  71.048  48.305  0.00  0.00    -0.026 C 
ATOM      3  C   UNL A   1      74.310  71.142  48.420  0.00  0.00    -0.212 C 
ATOM      4  C   UNL A   1      74.869  71.263  49.647  0.00  0.00    -0.456 C 
ATOM      5  C   UNL A   1      74.093  71.310  50.931  0.00  0.00    -0.039 C 
ATOM      6  C   UNL A   1      72.780  71.215  50.682  0.00  0.00    +0.059 A 
ATOM      7  N   UNL A   1      74.657  71.424  52.058  0.00  0.00    -0.078 NA
ATOM      8  N   UNL A   1      71.813  71.226  51.623  0.00  0.00    -0.277 N 
ATOM      9  C   UNL A   1      70.811  71.030  49.703  0.00  0.00    +0.093 A 
ATOM     10  N   UNL A   1      70.625  71.116  51.041  0.00  0.00    -0.173 NA
ATOM     11  H   UNL A   1      71.950  71.309  52.655  0.00  0.00    +0.189 HD
ENDROOT
BRANCH   9  12
ATOM     12  C   UNL A   1      69.726  70.895  48.710  0.00  0.00    +0.037 C 
ATOM     13  C   UNL A   1      69.189  71.965  48.100  0.00  0.00    +0.093 C 
BRANCH  13  14
ATOM     14  C   UNL A   1      68.102  71.848  47.104  0.00  0.00    +0.330 C 
ATOM     15  O   UNL A   1      67.930  70.810  46.481  0.00  0.00    -0.246 OA
BRANCH  14  16
ATOM     16  O   UNL A   1      67.295  72.905  46.883  0.00  0.00    -0.477 OA
ATOM     17  H   UNL A   1      66.574  72.865  46.238  0.00  0.00    +0.295 HD
ENDBRANCH  14  16
ENDBRANCH  13  14
ENDBRANCH   9  12
BRANCH   7  18
ATOM     18  O   UNL A   1      75.966  71.510  52.180  0.00  0.00    -0.187 OA
ATOM     19  O   UNL A   1      76.648  70.813  51.569  0.00  0.00    +0.053 OA
ENDBRANCH   7  18
TORSDOF 4
ENDMDL
MODEL 2
REMARK minimizedAffinity 4.28459406
REMARK minimizedRMSD -1
REMARK  Name = *****
REMARK  4 active torsions:
REMARK  status: ('A' for Active; 'I' for Inactive)
REMARK    1  A    between atoms: N_8  and  O_23
REMARK    2  A    between atoms: C_10  and  C_12
REMARK    3  A    between atoms: C_13  and  C_14
REMARK    4  A    between atoms: C_14  and  O_18
REMARK                            x       y       z     vdW  Elec       q    Type
REMARK                         _______ _______ _______ _____ _____    ______ ____
ROOT
ATOM      1  C   UNL A   1      72.116  71.115  49.727  0.00  0.00    +0.023 A 
ATOM      2  C   UNL A   1      71.459  71.262  50.875  0.00  0.00    -0.026 C 
ATOM      3  C   UNL A   1      69.990  71.261  50.782  0.00  0.00    -0.212 C 
ATOM      4  C   UNL A   1      69.406  71.115  49.569  0.00  0.00    -0.456 C 
ATOM      5  C   UNL A   1      70.158  70.951  48.280  0.00  0.00    -0.039 C 
ATOM      6  C   UNL A   1      71.478  70.970  48.509  0.00  0.00    +0.059 A 
ATOM      7  N   UNL A   1      69.571  70.817  47.167  0.00  0.00    -0.078 NA
ATOM      8  N   UNL A   1      72.428  70.846  47.559  0.00  0.00    -0.277 N 
ATOM      9  C   UNL A   1      73.469  71.073  49.454  0.00  0.00    +0.093 A 
ATOM     10  N   UNL A   1      73.629  70.908  48.121  0.00  0.00    -0.173 NA
ATOM     11  H   UNL A   1      72.271  70.721  46.534  0.00  0.00    +0.189 HD
ENDROOT
BRANCH   9  12
ATOM     12  C   UNL A   1      74.575  71.186  50.427  0.00  0.00    +0.037 C 
ATOM     13  C   UNL A   1      74.580  72.126  51.387  0.00  0.00    +0.093 C 
BRANCH  13  14
ATOM     14  C   UNL A   1      75.679  72.253  52.368  0.00  0.00    +0.330 C 
ATOM     15  O   UNL A   1      75.722  73.196  53.145  0.00  0.00    -0.246 OA
BRANCH  14  16
ATOM     16  O   UNL A   1      76.645  71.312  52.401  0.00  0.00    -0.477 OA
ATOM     17  H   UNL A   1      77.380  71.363  53.029  0.00  0.00    +0.295 HD
ENDBRANCH  14  16
ENDBRANCH  13  14
ENDBRANCH   9  12
BRANCH   7  18
ATOM     18  O   UNL A   1      68.258  70.814  47.065  0.00  0.00    -0.187 OA
ATOM     19  O   UNL A   1      67.748  71.345  46.180  0.00  0.00    +0.053 OA
ENDBRANCH   7  18
TORSDOF 4
ENDMDL
