MODEL 1
REMARK minimizedAffinity -4.32431793
REMARK minimizedRMSD -1
REMARK  Name = *****
REMARK  3 active torsions:
REMARK  status: ('A' for Active; 'I' for Inactive)
REMARK    1  A    between atoms: C_10  and  C_12
REMARK    2  A    between atoms: C_13  and  C_14
REMARK    3  A    between atoms: C_14  and  O_18
REMARK                            x       y       z     vdW  Elec       q    Type
REMARK                         _______ _______ _______ _____ _____    ______ ____
ROOT
ATOM      1  C   UNL A   1      72.044  71.055  50.201  0.00  0.00    +0.024 A 
ATOM      2  C   UNL A   1      70.749  71.000  50.716  0.00  0.00    +0.013 A 
ATOM      3  C   UNL A   1      69.687  70.873  49.799  0.00  0.00    -0.032 A 
ATOM      4  C   UNL A   1      69.944  70.809  48.410  0.00  0.00    -0.490 A 
ATOM      5  C   UNL A   1      71.264  70.868  47.924  0.00  0.00    -0.167 A 
ATOM      6  C   UNL A   1      72.289  70.993  48.859  0.00  0.00    +0.034 A 
ATOM      7  N   UNL A   1      73.612  71.069  48.644  0.00  0.00    -0.279 N 
ATOM      8  C   UNL A   1      73.284  71.174  50.794  0.00  0.00    +0.093 A 
ATOM      9  N   UNL A   1      74.226  71.179  49.818  0.00  0.00    -0.173 NA
ATOM     10  F   UNL A   1      68.411  70.815  50.253  0.00  0.00    -0.244 F 
ATOM     11  H   UNL A   1      74.099  71.046  47.721  0.00  0.00    +0.189 HD
ENDROOT
BRANCH   8  12
ATOM     12  C   UNL A   1      73.562  71.278  52.241  0.00  0.00    +0.037 C 
ATOM     13  C   UNL A   1      72.600  71.096  53.161  0.00  0.00    +0.093 C 
BRANCH  13  14
ATOM     14  C   UNL A   1      72.860  71.195  54.613  0.00  0.00    +0.330 C 
ATOM     15  O   UNL A   1      72.033  70.811  55.428  0.00  0.00    -0.246 OA
BRANCH  14  16
ATOM     16  O   UNL A   1      74.030  71.717  55.037  0.00  0.00    -0.477 OA
ATOM     17  H   UNL A   1      74.236  71.799  55.979  0.00  0.00    +0.295 HD
ENDBRANCH  14  16
ENDBRANCH  13  14
ENDBRANCH   8  12
TORSDOF 3
ENDMDL
MODEL 2
REMARK minimizedAffinity -4.11119223
REMARK minimizedRMSD -1
REMARK  Name = *****
REMARK  3 active torsions:
REMARK  status: ('A' for Active; 'I' for Inactive)
REMARK    1  A    between atoms: C_10  and  C_12
REMARK    2  A    between atoms: C_13  and  C_14
REMARK    3  A    between atoms: C_14  and  O_18
REMARK                            x       y       z     vdW  Elec       q    Type
REMARK                         _______ _______ _______ _____ _____    ______ ____
ROOT
ATOM      1  C   UNL A   1      72.040  71.026  50.045  0.00  0.00    +0.024 A 
ATOM      2  C   UNL A   1      73.429  71.139  50.014  0.00  0.00    +0.013 A 
ATOM      3  C   UNL A   1      74.053  71.160  48.752  0.00  0.00    -0.032 A 
ATOM      4  C   UNL A   1      73.283  71.065  47.570  0.00  0.00    -0.490 A 
ATOM      5  C   UNL A   1      71.881  70.951  47.637  0.00  0.00    -0.167 A 
ATOM      6  C   UNL A   1      71.297  70.934  48.902  0.00  0.00    +0.034 A 
ATOM      7  N   UNL A   1      69.998  70.835  49.222  0.00  0.00    -0.279 N 
ATOM      8  C   UNL A   1      71.127  70.976  51.078  0.00  0.00    +0.093 A 
ATOM      9  N   UNL A   1      69.884  70.860  50.546  0.00  0.00    -0.173 NA
ATOM     10  F   UNL A   1      75.402  71.269  48.670  0.00  0.00    -0.244 F 
ATOM     11  H   UNL A   1      69.194  70.752  48.560  0.00  0.00    +0.189 HD
ENDROOT
BRANCH   8  12
ATOM     12  C   UNL A   1      71.428  71.039  52.523  0.00  0.00    +0.037 C 
ATOM     13  C   UNL A   1      72.671  71.264  52.978  0.00  0.00    +0.093 C 
BRANCH  13  14
ATOM     14  C   UNL A   1      72.991  71.331  54.420  0.00  0.00    +0.330 C 
ATOM     15  O   UNL A   1      72.262  70.809  55.252  0.00  0.00    -0.246 OA
BRANCH  14  16
ATOM     16  O   UNL A   1      74.108  71.978  54.815  0.00  0.00    -0.477 OA
ATOM     17  H   UNL A   1      74.351  72.043  55.750  0.00  0.00    +0.295 HD
ENDBRANCH  14  16
ENDBRANCH  13  14
ENDBRANCH   8  12
TORSDOF 3
ENDMDL
