REMARK  Name = *****
REMARK  3 active torsions:
REMARK  status: ('A' for Active; 'I' for Inactive)
REMARK    1  A    between atoms: C_12  and  C_15
REMARK    2  A    between atoms: C_16  and  C_17
REMARK    3  A    between atoms: C_17  and  O_21
REMARK                            x       y       z     vdW  Elec       q    Type
REMARK                         _______ _______ _______ _____ _____    ______ ____
ROOT
ATOM      1  C   UNL A   1      -2.739   0.797  -0.842  0.00  0.00    +0.027 A 
ATOM      2  C   UNL A   1      -3.246   1.734   0.058  0.00  0.00    +0.012 A 
ATOM      3  C   UNL A   1      -4.019   1.254   1.132  0.00  0.00    +0.001 A 
ATOM      4  C   UNL A   1      -4.262  -0.131   1.279  0.00  0.00    +0.002 A 
ATOM      5  C   UNL A   1      -3.735  -1.051   0.352  0.00  0.00    +0.028 A 
ATOM      6  C   UNL A   1      -2.975  -0.541  -0.699  0.00  0.00    +0.066 A 
ATOM      7  N   UNL A   1      -2.374  -1.210  -1.696  0.00  0.00    -0.276 N 
ATOM      8  C   UNL A   1      -1.963   0.910  -1.978  0.00  0.00    +0.093 A 
ATOM      9  N   UNL A   1      -1.755  -0.333  -2.480  0.00  0.00    -0.173 NA
ATOM     10  H   UNL A   1      -2.379  -2.243  -1.850  0.00  0.00    +0.189 HD
ENDROOT
BRANCH   8  11
ATOM     11  C   UNL A   1      -1.437   2.158  -2.566  0.00  0.00    +0.037 C 
ATOM     12  C   UNL A   1      -0.688   2.155  -3.680  0.00  0.00    +0.093 C 
BRANCH  12  13
ATOM     13  C   UNL A   1      -0.154   3.396  -4.281  0.00  0.00    +0.330 C 
ATOM     14  O   UNL A   1      -0.380   4.487  -3.775  0.00  0.00    -0.246 OA
BRANCH  13  15
ATOM     15  O   UNL A   1       0.592   3.318  -5.402  0.00  0.00    -0.477 OA
ATOM     16  H   UNL A   1       0.958   4.109  -5.822  0.00  0.00    +0.295 HD
ENDBRANCH  13  15
ENDBRANCH  12  13
ENDBRANCH   8  11
TORSDOF 3
