REMARK  Name = *****
REMARK  4 active torsions:
REMARK  status: ('A' for Active; 'I' for Inactive)
REMARK    1  A    between atoms: N_11  and  C_14
REMARK    2  A    between atoms: C_12  and  C_15
REMARK    3  A    between atoms: C_16  and  C_17
REMARK    4  A    between atoms: C_17  and  O_21
REMARK                            x       y       z     vdW  Elec       q    Type
REMARK                         _______ _______ _______ _____ _____    ______ ____
ROOT
ATOM      1  C   UNL A   1      -2.743   0.827  -0.831  0.00  0.00    +0.027 A 
ATOM      2  C   UNL A   1      -3.245   1.774   0.062  0.00  0.00    +0.012 A 
ATOM      3  C   UNL A   1      -4.019   1.309   1.141  0.00  0.00    +0.001 A 
ATOM      4  C   UNL A   1      -4.270  -0.072   1.299  0.00  0.00    +0.002 A 
ATOM      5  C   UNL A   1      -3.750  -1.004   0.382  0.00  0.00    +0.028 A 
ATOM      6  C   UNL A   1      -2.984  -0.512  -0.681  0.00  0.00    +0.069 A 
ATOM      7  N   UNL A   1      -2.378  -1.179  -1.686  0.00  0.00    -0.266 N 
ATOM      8  C   UNL A   1      -1.967   0.940  -1.967  0.00  0.00    +0.093 A 
ATOM      9  N   UNL A   1      -1.759  -0.302  -2.469  0.00  0.00    -0.171 NA
ATOM     10  C   UNL A   1      -2.359  -2.617  -1.937  0.00  0.00    +0.173 C 
ENDROOT
BRANCH   8  11
ATOM     11  C   UNL A   1      -1.441   2.188  -2.555  0.00  0.00    +0.037 C 
ATOM     12  C   UNL A   1      -0.692   2.183  -3.670  0.00  0.00    +0.093 C 
BRANCH  12  13
ATOM     13  C   UNL A   1      -0.157   3.424  -4.272  0.00  0.00    +0.330 C 
ATOM     14  O   UNL A   1      -0.383   4.515  -3.767  0.00  0.00    -0.246 OA
BRANCH  13  15
ATOM     15  O   UNL A   1       0.589   3.343  -5.393  0.00  0.00    -0.477 OA
ATOM     16  H   UNL A   1       0.955   4.134  -5.815  0.00  0.00    +0.295 HD
ENDBRANCH  13  15
ENDBRANCH  12  13
ENDBRANCH   8  11
TORSDOF 3
