REMARK  Name = *****
REMARK  3 active torsions:
REMARK  status: ('A' for Active; 'I' for Inactive)
REMARK    1  A    between atoms: C_10  and  C_12
REMARK    2  A    between atoms: C_13  and  C_14
REMARK    3  A    between atoms: C_14  and  O_18
REMARK                            x       y       z     vdW  Elec       q    Type
REMARK                         _______ _______ _______ _____ _____    ______ ____
ROOT
ATOM      1  C   UNL A   1      -2.569   1.438  -1.113  0.00  0.00    +0.024 A 
ATOM      2  C   UNL A   1      -2.856   2.302  -0.057  0.00  0.00    +0.013 A 
ATOM      3  C   UNL A   1      -3.392   1.740   1.118  0.00  0.00    -0.032 A 
ATOM      4  C   UNL A   1      -3.626   0.348   1.204  0.00  0.00    -0.490 A 
ATOM      5  C   UNL A   1      -3.325  -0.496   0.118  0.00  0.00    -0.167 A 
ATOM      6  C   UNL A   1      -2.796   0.094  -1.028  0.00  0.00    +0.034 A 
ATOM      7  N   UNL A   1      -2.433  -0.493  -2.179  0.00  0.00    -0.279 N 
ATOM      8  C   UNL A   1      -2.050   1.642  -2.375  0.00  0.00    +0.093 A 
ATOM      9  N   UNL A   1      -1.977   0.443  -3.006  0.00  0.00    -0.173 NA
ATOM     10  F   UNL A   1      -3.687   2.540   2.172  0.00  0.00    -0.244 F 
ATOM     11  H   UNL A   1      -2.489  -1.510  -2.409  0.00  0.00    +0.189 HD
ENDROOT
BRANCH   8  12
ATOM     12  C   UNL A   1      -1.637   2.934  -2.960  0.00  0.00    +0.037 C 
ATOM     13  C   UNL A   1      -1.141   3.020  -4.205  0.00  0.00    +0.093 C 
BRANCH  13  14
ATOM     14  C   UNL A   1      -0.723   4.304  -4.808  0.00  0.00    +0.330 C 
ATOM     15  O   UNL A   1      -0.814   5.352  -4.184  0.00  0.00    -0.246 OA
BRANCH  14  16
ATOM     16  O   UNL A   1      -0.233   4.310  -6.066  0.00  0.00    -0.477 OA
ATOM     17  H   UNL A   1       0.051   5.130  -6.494  0.00  0.00    +0.295 HD
ENDBRANCH  14  16
ENDBRANCH  13  14
ENDBRANCH   8  12
TORSDOF 3
