REMARK  Name = *****
REMARK  4 active torsions:
REMARK  status: ('A' for Active; 'I' for Inactive)
REMARK    1  A    between atoms: C_10  and  C_12
REMARK    2  A    between atoms: C_13  and  C_14
REMARK    3  A    between atoms: C_14  and  O_18
REMARK    4  A    between atoms: N_20  and  O_23
REMARK                            x       y       z     vdW  Elec       q    Type
REMARK                         _______ _______ _______ _____ _____    ______ ____
ROOT
ATOM      1  C   UNL A   1      -2.659   1.364  -0.919  0.00  0.00    +0.009 A 
ATOM      2  C   UNL A   1      -2.947   2.167   0.118  0.00  0.00    +0.051 C 
ATOM      3  C   UNL A   1      -3.519   1.630   1.386  0.00  0.00    -0.063 C 
ATOM      4  C   UNL A   1      -3.704   0.293   1.361  0.00  0.00    -0.501 C 
ATOM      5  C   UNL A   1      -3.375  -0.579   0.193  0.00  0.00    -0.169 C 
ATOM      6  C   UNL A   1      -2.870   0.023  -0.879  0.00  0.00    +0.031 A 
ATOM      7  N   UNL A   1      -2.495  -0.529  -2.044  0.00  0.00    -0.279 N 
ATOM      8  C   UNL A   1      -2.133   1.613  -2.173  0.00  0.00    +0.090 A 
ATOM      9  N   UNL A   1      -2.045   0.435  -2.840  0.00  0.00    -0.174 NA
ATOM     10  N   UNL A   1      -3.743   2.493   2.281  0.00  0.00    -0.081 NA
ATOM     11  H   UNL A   1      -2.541  -1.539  -2.305  0.00  0.00    +0.189 HD
ENDROOT
BRANCH   8  12
ATOM     12  C   UNL A   1      -1.729   2.924  -2.722  0.00  0.00    +0.037 C 
ATOM     13  C   UNL A   1      -1.227   3.048  -3.962  0.00  0.00    +0.093 C 
BRANCH  13  14
ATOM     14  C   UNL A   1      -0.818   4.352  -4.525  0.00  0.00    +0.330 C 
ATOM     15  O   UNL A   1      -0.923   5.380  -3.872  0.00  0.00    -0.246 OA
BRANCH  14  16
ATOM     16  O   UNL A   1      -0.322   4.401  -5.779  0.00  0.00    -0.477 OA
ATOM     17  H   UNL A   1      -0.044   5.236  -6.180  0.00  0.00    +0.295 HD
ENDBRANCH  14  16
ENDBRANCH  13  14
ENDBRANCH   8  12
BRANCH  10  18
ATOM     18  O   UNL A   1      -4.248   2.150   3.448  0.00  0.00    -0.187 OA
ATOM     19  O   UNL A   1      -4.443   2.953   4.249  0.00  0.00    +0.053 OA
ENDBRANCH  10  18
TORSDOF 4
