REMARK  Name = *****
REMARK  4 active torsions:
REMARK  status: ('A' for Active; 'I' for Inactive)
REMARK    1  A    between atoms: C_2  and  C_7
REMARK    2  A    between atoms: C_9  and  C_11
REMARK    3  A    between atoms: C_12  and  C_13
REMARK    4  A    between atoms: C_13  and  O_17
REMARK                            x       y       z     vdW  Elec       q    Type
REMARK                         _______ _______ _______ _____ _____    ______ ____
ROOT
ATOM      1  C   UNL A   1      -3.223   0.654  -1.169  0.00  0.00    +0.024 A 
ATOM      2  C   UNL A   1      -4.618   0.772  -0.905  0.00  0.00    -0.072 A 
ATOM      3  C   UNL A   1      -5.156  -0.036   0.124  0.00  0.00    -0.194 A 
ATOM      4  C   UNL A   1      -4.351  -0.921   0.860  0.00  0.00    -0.527 A 
ATOM      5  C   UNL A   1      -2.985  -1.023   0.587  0.00  0.00    -0.170 A 
ATOM      6  C   UNL A   1      -2.462  -0.227  -0.425  0.00  0.00    +0.034 A 
ATOM      7  C   UNL A   1      -5.592   1.674  -1.611  0.00  0.00    +0.041 C 
ATOM      8  N   UNL A   1      -1.185  -0.190  -0.824  0.00  0.00    -0.279 N 
ATOM      9  C   UNL A   1      -2.293   1.232  -2.058  0.00  0.00    +0.093 A 
ATOM     10  N   UNL A   1      -1.076   0.687  -1.808  0.00  0.00    -0.173 NA
ATOM     11  H   UNL A   1      -0.391  -0.749  -0.440  0.00  0.00    +0.189 HD
ENDROOT
BRANCH   9  12
ATOM     12  C   UNL A   1      -2.468   2.255  -3.120  0.00  0.00    +0.037 C 
ATOM     13  C   UNL A   1      -1.429   2.673  -3.867  0.00  0.00    +0.093 C 
BRANCH  13  14
ATOM     14  C   UNL A   1      -1.570   3.690  -4.933  0.00  0.00    +0.330 C 
ATOM     15  O   UNL A   1      -2.655   4.198  -5.179  0.00  0.00    -0.246 OA
BRANCH  14  16
ATOM     16  O   UNL A   1      -0.480   4.058  -5.639  0.00  0.00    -0.477 OA
ATOM     17  H   UNL A   1      -0.534   4.720  -6.343  0.00  0.00    +0.295 HD
ENDBRANCH  14  16
ENDBRANCH  13  14
ENDBRANCH   9  12
TORSDOF 3
