REMARK  Name = *****
REMARK  4 active torsions:
REMARK  status: ('A' for Active; 'I' for Inactive)
REMARK    1  A    between atoms: C_5  and  C_22
REMARK    2  A    between atoms: C_9  and  C_11
REMARK    3  A    between atoms: C_12  and  C_13
REMARK    4  A    between atoms: C_13  and  O_17
REMARK                            x       y       z     vdW  Elec       q    Type
REMARK                         _______ _______ _______ _____ _____    ______ ____
ROOT
ATOM      1  C   UNL A   1      -3.127   0.655  -1.185  0.00  0.00    +0.022 A 
ATOM      2  C   UNL A   1      -4.495   0.858  -1.012  0.00  0.00    -0.023 A 
ATOM      3  C   UNL A   1      -5.143   0.111  -0.012  0.00  0.00    -0.197 A 
ATOM      4  C   UNL A   1      -4.421  -0.809   0.781  0.00  0.00    -0.524 A 
ATOM      5  C   UNL A   1      -3.034  -0.996   0.583  0.00  0.00    -0.183 A 
ATOM      6  C   UNL A   1      -2.424  -0.235  -0.421  0.00  0.00    +0.037 A 
ATOM      7  N   UNL A   1      -1.135  -0.224  -0.804  0.00  0.00    -0.279 N 
ATOM      8  C   UNL A   1      -2.203   1.206  -2.051  0.00  0.00    +0.093 A 
ATOM      9  N   UNL A   1      -0.993   0.650  -1.795  0.00  0.00    -0.173 NA
ATOM     10  H   UNL A   1      -0.356  -0.795  -0.408  0.00  0.00    +0.189 HD
ATOM     11  C   UNL A   1      -2.248  -1.967   1.413  0.00  0.00    +0.007 C 
ENDROOT
BRANCH   8  12
ATOM     12  C   UNL A   1      -2.463   2.226  -3.085  0.00  0.00    +0.037 C 
ATOM     13  C   UNL A   1      -1.486   2.696  -3.878  0.00  0.00    +0.093 C 
BRANCH  13  14
ATOM     14  C   UNL A   1      -1.730   3.717  -4.918  0.00  0.00    +0.330 C 
ATOM     15  O   UNL A   1      -2.849   4.178  -5.096  0.00  0.00    -0.246 OA
BRANCH  14  16
ATOM     16  O   UNL A   1      -0.700   4.143  -5.678  0.00  0.00    -0.477 OA
ATOM     17  H   UNL A   1      -0.823   4.810  -6.368  0.00  0.00    +0.295 HD
ENDBRANCH  14  16
ENDBRANCH  13  14
ENDBRANCH   8  12
TORSDOF 3
