REMARK  Name = *****
REMARK  5 active torsions:
REMARK  status: ('A' for Active; 'I' for Inactive)
REMARK    1  A    between atoms: C_4  and  O_20
REMARK    2  A    between atoms: C_9  and  C_11
REMARK    3  A    between atoms: C_12  and  C_13
REMARK    4  A    between atoms: C_13  and  O_17
REMARK    5  A    between atoms: O_20  and  C_22
REMARK                            x       y       z     vdW  Elec       q    Type
REMARK                         _______ _______ _______ _____ _____    ______ ____
ROOT
ATOM      1  C   UNL A   1      -1.491  -0.902  -0.270  0.00  0.00    +0.027 A 
ATOM      2  C   UNL A   1      -2.701  -1.139   0.378  0.00  0.00    +0.016 A 
ATOM      3  C   UNL A   1      -2.723  -2.128   1.378  0.00  0.00    +0.046 A 
ATOM      4  C   UNL A   1      -1.555  -2.856   1.711  0.00  0.00    +0.122 A 
ATOM      5  C   UNL A   1      -0.342  -2.583   1.025  0.00  0.00    +0.073 A 
ATOM      6  C   UNL A   1      -0.359  -1.597   0.042  0.00  0.00    +0.070 A 
ATOM      7  N   UNL A   1       0.654  -1.170  -0.729  0.00  0.00    -0.276 N 
ATOM      8  C   UNL A   1      -1.119  -0.028  -1.272  0.00  0.00    +0.093 A 
ATOM      9  N   UNL A   1       0.200  -0.214  -1.533  0.00  0.00    -0.173 NA
ATOM     10  H   UNL A   1       1.639  -1.516  -0.717  0.00  0.00    +0.189 HD
ENDROOT
BRANCH   8  11
ATOM     11  C   UNL A   1      -1.987   0.949  -1.958  0.00  0.00    +0.037 C 
ATOM     12  C   UNL A   1      -1.520   1.755  -2.925  0.00  0.00    +0.093 C 
BRANCH  12  13
ATOM     13  C   UNL A   1      -2.377   2.739  -3.621  0.00  0.00    +0.330 C 
ATOM     14  O   UNL A   1      -3.560   2.854  -3.335  0.00  0.00    -0.246 OA
BRANCH  13  15
ATOM     15  O   UNL A   1      -1.839   3.517  -4.583  0.00  0.00    -0.477 OA
ATOM     16  H   UNL A   1      -2.369   4.171  -5.060  0.00  0.00    +0.295 HD
ENDBRANCH  13  15
ENDBRANCH  12  13
ENDBRANCH   8  11
BRANCH   4  17
ATOM     17  O   UNL A   1      -1.643  -3.798   2.685  0.00  0.00    -0.495 OA
ATOM     18  C   UNL A   1      -0.609  -4.593   3.131  0.00  0.00    +0.277 C 
ENDBRANCH   4  17
TORSDOF 4
