REMARK  Name = *****
REMARK  3 active torsions:
REMARK  status: ('A' for Active; 'I' for Inactive)
REMARK    1  A    between atoms: C_10  and  C_12
REMARK    2  A    between atoms: C_13  and  C_14
REMARK    3  A    between atoms: C_14  and  O_18
REMARK                            x       y       z     vdW  Elec       q    Type
REMARK                         _______ _______ _______ _____ _____    ______ ____
ROOT
ATOM      1  C   UNL A   1      -2.560   1.417  -1.145  0.00  0.00    +0.022 A 
ATOM      2  C   UNL A   1      -2.848   2.275  -0.085  0.00  0.00    -0.009 A 
ATOM      3  C   UNL A   1      -3.385   1.707   1.087  0.00  0.00    -0.139 A 
ATOM      4  C   UNL A   1      -3.616   0.313   1.166  0.00  0.00    -0.512 A 
ATOM      5  C   UNL A   1      -3.313  -0.524   0.076  0.00  0.00    -0.169 A 
ATOM      6  C   UNL A   1      -2.784   0.072  -1.066  0.00  0.00    +0.034 A 
ATOM      7  N   UNL A   1      -2.419  -0.510  -2.220  0.00  0.00    -0.279 N 
ATOM      8  C   UNL A   1      -2.040   1.626  -2.407  0.00  0.00    +0.093 A 
ATOM      9  N   UNL A   1      -1.965   0.429  -3.042  0.00  0.00    -0.173 NA
ATOM     10 BR   UNL A   1      -3.803   2.825   2.578  0.00  0.00    -0.089 Br
ATOM     11  H   UNL A   1      -2.474  -1.526  -2.454  0.00  0.00    +0.189 HD
ENDROOT
BRANCH   8  12
ATOM     12  C   UNL A   1      -1.629   2.919  -2.987  0.00  0.00    +0.037 C 
ATOM     13  C   UNL A   1      -1.132   3.011  -4.232  0.00  0.00    +0.093 C 
BRANCH  13  14
ATOM     14  C   UNL A   1      -0.716   4.299  -4.827  0.00  0.00    +0.330 C 
ATOM     15  O   UNL A   1      -0.811   5.343  -4.196  0.00  0.00    -0.246 OA
BRANCH  14  16
ATOM     16  O   UNL A   1      -0.225   4.317  -6.083  0.00  0.00    -0.477 OA
ATOM     17  H   UNL A   1       0.056   5.141  -6.505  0.00  0.00    +0.295 HD
ENDBRANCH  14  16
ENDBRANCH  13  14
ENDBRANCH   8  12
TORSDOF 3
