REMARK  Name = *****
REMARK  3 active torsions:
REMARK  status: ('A' for Active; 'I' for Inactive)
REMARK    1  A    between atoms: C_11  and  C_13
REMARK    2  A    between atoms: C_14  and  C_15
REMARK    3  A    between atoms: C_15  and  O_19
REMARK                            x       y       z     vdW  Elec       q    Type
REMARK                         _______ _______ _______ _____ _____    ______ ____
ROOT
ATOM      1  C   UNL A   1      -2.711   0.852  -0.875  0.00  0.00    +0.027 A 
ATOM      2  C   UNL A   1      -3.217   1.788   0.027  0.00  0.00    +0.013 A 
ATOM      3  C   UNL A   1      -3.989   1.307   1.101  0.00  0.00    +0.016 A 
ATOM      4  C   UNL A   1      -4.234  -0.079   1.246  0.00  0.00    +0.020 A 
ATOM      5  C   UNL A   1      -3.708  -0.997   0.316  0.00  0.00    +0.043 A 
ATOM      6  C   UNL A   1      -2.948  -0.486  -0.734  0.00  0.00    +0.067 A 
ATOM      7 BR   UNL A   1      -5.285  -0.711   2.710  0.00  0.00    -0.050 Br
ATOM      8  N   UNL A   1      -2.348  -1.153  -1.733  0.00  0.00    -0.276 N 
ATOM      9  C   UNL A   1      -1.936   0.967  -2.011  0.00  0.00    +0.093 A 
ATOM     10  N   UNL A   1      -1.729  -0.275  -2.516  0.00  0.00    -0.173 NA
ATOM     11  H   UNL A   1      -2.354  -2.186  -1.889  0.00  0.00    +0.189 HD
ENDROOT
BRANCH   9  12
ATOM     12  C   UNL A   1      -1.409   2.216  -2.597  0.00  0.00    +0.037 C 
ATOM     13  C   UNL A   1      -0.661   2.215  -3.712  0.00  0.00    +0.093 C 
BRANCH  13  14
ATOM     14  C   UNL A   1      -0.127   3.457  -4.310  0.00  0.00    +0.330 C 
ATOM     15  O   UNL A   1      -0.352   4.546  -3.802  0.00  0.00    -0.246 OA
BRANCH  14  16
ATOM     16  O   UNL A   1       0.619   3.380  -5.432  0.00  0.00    -0.477 OA
ATOM     17  H   UNL A   1       0.984   4.172  -5.851  0.00  0.00    +0.295 HD
ENDBRANCH  14  16
ENDBRANCH  13  14
ENDBRANCH   9  12
TORSDOF 3
