REMARK  Name = *****
REMARK  3 active torsions:
REMARK  status: ('A' for Active; 'I' for Inactive)
REMARK    1  A    between atoms: C_10  and  C_12
REMARK    2  A    between atoms: C_13  and  C_14
REMARK    3  A    between atoms: C_14  and  O_18
REMARK                            x       y       z     vdW  Elec       q    Type
REMARK                         _______ _______ _______ _____ _____    ______ ____
ROOT
ATOM      1  C   UNL A   1      -2.566   1.489  -1.103  0.00  0.00    +0.023 A 
ATOM      2  C   UNL A   1      -2.848   2.363  -0.053  0.00  0.00    -0.023 A 
ATOM      3  C   UNL A   1      -3.385   1.812   1.126  0.00  0.00    -0.196 A 
ATOM      4  C   UNL A   1      -3.623   0.423   1.225  0.00  0.00    -0.512 A 
ATOM      5  C   UNL A   1      -3.327  -0.433   0.146  0.00  0.00    -0.114 A 
ATOM      6  C   UNL A   1      -2.796   0.145  -1.008  0.00  0.00    +0.047 A 
ATOM      7 BR   UNL A   1      -3.647  -2.313   0.275  0.00  0.00    -0.087 Br
ATOM      8  N   UNL A   1      -2.435  -0.449  -2.158  0.00  0.00    -0.278 N 
ATOM      9  C   UNL A   1      -2.047   1.683  -2.367  0.00  0.00    +0.093 A 
ATOM     10  N   UNL A   1      -1.978   0.480  -2.990  0.00  0.00    -0.173 NA
ATOM     11  H   UNL A   1      -2.492  -1.467  -2.386  0.00  0.00    +0.189 HD
ENDROOT
BRANCH   9  12
ATOM     12  C   UNL A   1      -1.631   2.967  -2.963  0.00  0.00    +0.037 C 
ATOM     13  C   UNL A   1      -1.137   3.040  -4.210  0.00  0.00    +0.093 C 
BRANCH  13  14
ATOM     14  C   UNL A   1      -0.716   4.318  -4.821  0.00  0.00    +0.330 C 
ATOM     15  O   UNL A   1      -0.805   5.369  -4.202  0.00  0.00    -0.246 OA
BRANCH  14  16
ATOM     16  O   UNL A   1      -0.228   4.317  -6.078  0.00  0.00    -0.477 OA
ATOM     17  H   UNL A   1       0.057   5.135  -6.509  0.00  0.00    +0.295 HD
ENDBRANCH  14  16
ENDBRANCH  13  14
ENDBRANCH   9  12
TORSDOF 3
