REMARK  Name = *****
REMARK  4 active torsions:
REMARK  status: ('A' for Active; 'I' for Inactive)
REMARK    1  A    between atoms: N_8  and  O_23
REMARK    2  A    between atoms: C_10  and  C_12
REMARK    3  A    between atoms: C_13  and  C_14
REMARK    4  A    between atoms: C_14  and  O_18
REMARK                            x       y       z     vdW  Elec       q    Type
REMARK                         _______ _______ _______ _____ _____    ______ ____
ROOT
ATOM      1  C   UNL A   1      -2.802   0.734  -1.017  0.00  0.00    +0.023 A 
ATOM      2  C   UNL A   1      -3.726   1.372  -0.302  0.00  0.00    -0.026 C 
ATOM      3  C   UNL A   1      -4.395   0.577   0.741  0.00  0.00    -0.212 C 
ATOM      4  C   UNL A   1      -4.044  -0.720   0.910  0.00  0.00    -0.456 C 
ATOM      5  C   UNL A   1      -3.000  -1.428   0.096  0.00  0.00    -0.039 C 
ATOM      6  C   UNL A   1      -2.475  -0.593  -0.810  0.00  0.00    +0.059 A 
ATOM      7  N   UNL A   1      -2.702  -2.643   0.288  0.00  0.00    -0.078 NA
ATOM      8  N   UNL A   1      -1.512  -0.922  -1.696  0.00  0.00    -0.277 N 
ATOM      9  C   UNL A   1      -1.998   1.167  -2.053  0.00  0.00    +0.093 A 
ATOM     10  N   UNL A   1      -1.220   0.133  -2.448  0.00  0.00    -0.173 NA
ATOM     11  H   UNL A   1      -1.051  -1.854  -1.797  0.00  0.00    +0.189 HD
ENDROOT
BRANCH   9  12
ATOM     12  C   UNL A   1      -1.968   2.518  -2.650  0.00  0.00    +0.037 C 
ATOM     13  C   UNL A   1      -1.139   2.826  -3.661  0.00  0.00    +0.093 C 
BRANCH  13  14
ATOM     14  C   UNL A   1      -1.096   4.173  -4.270  0.00  0.00    +0.330 C 
ATOM     15  O   UNL A   1      -1.826   5.068  -3.868  0.00  0.00    -0.246 OA
BRANCH  14  16
ATOM     16  O   UNL A   1      -0.238   4.411  -5.283  0.00  0.00    -0.477 OA
ATOM     17  H   UNL A   1      -0.183   5.280  -5.706  0.00  0.00    +0.295 HD
ENDBRANCH  14  16
ENDBRANCH  13  14
ENDBRANCH   9  12
BRANCH   7  18
ATOM     18  O   UNL A   1      -3.291  -3.369   1.216  0.00  0.00    -0.187 OA
ATOM     19  O   UNL A   1      -2.993  -4.471   1.360  0.00  0.00    +0.053 OA
ENDBRANCH   7  18
TORSDOF 4
