REMARK  Name = *****
REMARK  4 active torsions:
REMARK  status: ('A' for Active; 'I' for Inactive)
REMARK    1  A    between atoms: C_3  and  C_21
REMARK    2  A    between atoms: C_9  and  C_11
REMARK    3  A    between atoms: C_12  and  C_13
REMARK    4  A    between atoms: C_13  and  O_17
REMARK                            x       y       z     vdW  Elec       q    Type
REMARK                         _______ _______ _______ _____ _____    ______ ____
ROOT
ATOM      1  C   UNL A   1      -3.104   0.622  -1.165  0.00  0.00    +0.022 A 
ATOM      2  C   UNL A   1      -4.473   0.818  -0.990  0.00  0.00    -0.020 A 
ATOM      3  C   UNL A   1      -5.124   0.063   0.014  0.00  0.00    -0.208 A 
ATOM      4  C   UNL A   1      -4.382  -0.855   0.801  0.00  0.00    -0.524 A 
ATOM      5  C   UNL A   1      -3.001  -1.026   0.595  0.00  0.00    -0.170 A 
ATOM      6  C   UNL A   1      -2.399  -0.264  -0.402  0.00  0.00    +0.034 A 
ATOM      7  N   UNL A   1      -1.110  -0.252  -0.780  0.00  0.00    -0.279 N 
ATOM      8  C   UNL A   1      -2.180   1.176  -2.028  0.00  0.00    +0.093 A 
ATOM      9  N   UNL A   1      -0.968   0.622  -1.770  0.00  0.00    -0.173 NA
ATOM     10  H   UNL A   1      -0.334  -0.824  -0.378  0.00  0.00    +0.189 HD
ATOM     11  C   UNL A   1      -6.595   0.225   0.255  0.00  0.00    +0.005 C 
ENDROOT
BRANCH   8  12
ATOM     12  C   UNL A   1      -2.440   2.196  -3.062  0.00  0.00    +0.037 C 
ATOM     13  C   UNL A   1      -1.463   2.669  -3.853  0.00  0.00    +0.093 C 
BRANCH  13  14
ATOM     14  C   UNL A   1      -1.708   3.691  -4.893  0.00  0.00    +0.330 C 
ATOM     15  O   UNL A   1      -2.828   4.148  -5.072  0.00  0.00    -0.246 OA
BRANCH  14  16
ATOM     16  O   UNL A   1      -0.678   4.120  -5.650  0.00  0.00    -0.477 OA
ATOM     17  H   UNL A   1      -0.801   4.787  -6.340  0.00  0.00    +0.295 HD
ENDBRANCH  14  16
ENDBRANCH  13  14
ENDBRANCH   8  12
TORSDOF 3
